24
 energy: -4.959756686940 gnorm: 0.000546489117 xtb: 6.5.0 (97a52f5)
B            2.85683517369486       -1.54837536307790       -0.00055637140268
C            3.58218719149921       -0.25183146260392       -0.00098067867583
C            2.82727236506214        0.86600787943990       -0.00121459147380
C            1.41279085599057        0.83871290704710       -0.00106626057350
C            0.67835301504764        2.05992525832874       -0.00131200642739
C           -0.67221282556353        2.06933388587791       -0.00112179172890
C           -1.41497542358958        0.85337160466993       -0.00067540154915
C           -2.82111094888975        0.86227918506442       -0.00044302690316
C           -3.52746326659355       -0.30734977423166       -0.00002537709190
C           -2.85661068916341       -1.52692772905285        0.00018092997702
C           -1.48881051766818       -1.56472546723880       -0.00003112611445
C           -0.72844579123964       -0.38213292433447       -0.00045682022442
C            0.71689439423188       -0.38564199251501       -0.00065560081358
N            1.43427532040910       -1.54266298873600       -0.00042358175173
H            3.44190367527191       -2.56610255360431       -0.00032422951633
H            4.65514555213286       -0.23135945909946       -0.00107660530947
H            3.31262070721782        1.82769611706830       -0.00152405104677
H            1.22381690361701        2.98806794705754       -0.00164667488678
H           -1.20885210023600        3.00245919123814       -0.00129708543939
H           -3.33686934630912        1.80721739557837       -0.00060135423115
H           -4.60512624208200       -0.28793051188432        0.00015022734975
H           -3.42025897672855       -2.44574913498560        0.00050722729872
H           -0.99244912908449       -2.51764065792932        0.00013556299039
H            0.94363010297282       -2.42619135207672       -0.00013131245548
