103
 energy: -23.375985818358 gnorm: 0.000946911424 xtb: 6.5.0 (97a52f5)
Br          -1.46803185938466       -0.36061403020288       -0.19480528675218
C            0.41950816397136       -0.25067427340784       -0.12838403421140
C            1.03709241685319        0.38946438375142        0.92609522353259
C            2.41423697324838        0.46942708206346        0.97772635688932
C            3.19541277468096       -0.09121656671403       -0.02875293888763
C            4.66495157173928       -0.00823353760400        0.02586576413033
N            5.34191910175550       -0.54921877681020       -0.97511626163765
C            6.65758042211853       -0.44438223222159       -0.87171619992909
C            7.47559188738571       -1.02174664942038       -1.94975667474728
C            8.86439313336182       -0.94620388052105       -1.89855577965929
C            9.63621082434384       -1.47880511612678       -2.90411187363114
C            9.04677463144403       -2.10564015746567       -3.99855204749025
C            9.84871030374309       -2.64028148727537       -5.02680757914149
C           10.57994882654697       -3.08382212678751       -5.89980366294552
C           11.45958811615678       -3.57427339778417       -6.88567734872789
C           11.50443085749679       -3.00043900641623       -8.15365327088478
C           12.37868936250251       -3.46772798634009       -9.10732398072896
C           13.23829917622893       -4.52377825110773       -8.82450048750891
N           14.16748296409721       -4.99786334737544       -9.81268904697953
C           14.38895921576688       -6.34489648253062      -10.17123582179145
C           13.78131018604948       -7.52085121835489       -9.73199465156376
C           14.19298365324597       -8.71748213315234      -10.26562233046693
C           15.19920583629735       -8.76657582219434      -11.23390365238969
C           15.80368838875820       -7.61731009054813      -11.68373188662794
C           15.39511779853839       -6.39398078735743      -11.15124250573737
C           15.81207589214211       -5.03519752762629      -11.40724715062810
C           16.77340079910801       -4.49321931564395      -12.26123689906047
C           16.95652118019263       -3.13122317033714      -12.26754142276930
C           16.20110366919972       -2.30085292786593      -11.43554374580034
C           15.25141540170392       -2.82018487465062      -10.59026793209270
C           15.04619981866830       -4.19962343661447      -10.57641532795950
C           13.19196816324678       -5.10229877437667       -7.56072083493682
C           12.31774274578940       -4.63497910688934       -6.60719471629776
C            7.65724799039431       -2.18342647243336       -4.04953261118041
C            6.88531621495329       -1.65062321250567       -3.04263861309872
N            7.30180300517747        0.13946805781331        0.12619091197337
C            6.52289003362587        0.64390152998006        1.06991647541856
C            7.18764655126946        1.30413641409203        2.20452502246460
C            8.57375652819452        1.42578996284348        2.23671474961361
C            9.20237723758411        2.04395303772953        3.29198010582634
C            8.46742941295542        2.56236131547359        4.35464985337923
C            9.12172003063426        3.19725442270356        5.42938346704734
C            9.71819726906991        3.74700642176096        6.34345413653460
C           10.43915746137131        4.38061364245313        7.37532881502859
C           10.65045725832528        3.74498139771111        8.59617115602185
C           11.36863643694621        4.36033576562307        9.59508747713277
C           11.89980636227742        5.63175301182547        9.40631581870477
N           12.66380807737746        6.26931135406026       10.44277958539926
C           12.50248535301976        7.59414352764109       10.90203980998110
C           11.58695728551960        8.58261950035254       10.54182874776991
C           11.65043067558163        9.80322562031039       11.16812367635788
C           12.60869076000335       10.05895698994544       12.15243386414085
C           13.51338610677025        9.09415427965382       12.52565700420917
C           13.46027985307952        7.84887089959232       11.89839860523890
C           14.24190945113496        6.64535053745557       12.06048237475608
C           15.32150142628742        6.33155423380632       12.88697363210126
C           15.87877615083462        5.07866425853316       12.79582860276135
C           15.38198895891009        4.13542001015539       11.89254006127812
C           14.32011963203010        4.43032572591432       11.07304076387133
C           13.73558400231326        5.69371029685651       11.15875296842408
C           11.68708995608267        6.27040686404890        8.18943117885245
C           10.96895755167522        5.65505700881407        7.19079918532256
C            7.08065562577084        2.43899036529172        4.32426899401956
C            6.45202040145524        1.82120756910150        3.26744042814161
N            5.19978443022232        0.60153775616692        1.07233178668506
C            2.55721967050966       -0.73273551561131       -1.08667074176215
C            1.17972154707406       -0.81108543312253       -1.13394859257176
H            0.43111091899227        0.82331861297266        1.70467018174945
H            2.90155177021005        0.96676115642529        1.79758517764101
H            9.32563328196699       -0.46087152907704       -1.05657711231446
H           10.70990147996416       -1.41418142322015       -2.85663365408315
H           10.84416487294270       -2.18022008790947       -8.37781330323777
H           12.40065168818000       -3.02794290644106      -10.08888628425848
H           12.99958192700260       -7.47651506783904       -8.99531335881660
H           13.73223327894606       -9.63360717845355       -9.93445023767718
H           15.50315392884175       -9.71950109727849      -11.63475262951275
H           16.57661177175772       -7.64601948168252      -12.43121830675522
H           17.35496868750111       -5.13997283012658      -12.89403342395419
H           17.69561816446669       -2.69676311033843      -12.92030791805428
H           16.36889940462426       -1.23657380134171      -11.45655388833665
H           14.67691577802132       -2.18704219557589       -9.93856749628416
H           13.86619942453944       -5.90914357681006       -7.33327968006743
H           12.29307563551670       -5.08165645776078       -5.62797832028684
H            7.19263407341088       -2.66506175270221       -4.89283131058953
H            5.81226725170513       -1.71072921754537       -3.08790275721485
H            9.14747688212864        1.02692877255451        1.41875187469541
H           10.27521815459610        2.13442249888959        3.30728787777167
H           10.24352132829761        2.75990286632599        8.74791053084626
H           11.51856738621664        3.86918746278731       10.54044083569623
H           10.84370371984475        8.37626091767472        9.79299476396614
H           10.94972183219586       10.57622410786308       10.89835142947230
H           12.63617770827097       11.02602367781486       12.62693293089526
H           14.25171254144657        9.28163908005825       13.28506052647720
H           15.70226146111684        7.06584546244420       13.57456702012289
H           16.71326358357456        4.82038880382763       13.42674528518122
H           15.84170603391647        3.16234015926111       11.83730008751289
H           13.94231643020071        3.71259905723518       10.36749532195148
H           12.10941316346996        7.24758242362268        8.03417732197913
H           10.81247000702862        6.15273055990018        6.24906901462179
H            6.50397921674936        2.83648701322982        5.14197688427999
H            5.38037106673091        1.72907216463948        3.24809353362116
H            3.15549116160757       -1.16782570984213       -1.86756382211712
H            0.68429387854507       -1.30826349177433       -1.95187778728668
