73
 energy: -15.699406156607 gnorm: 0.000473401354 xtb: 6.5.0 (97a52f5)
C            1.97214221028379        0.24531061234225        2.84429542992552
C            3.37122780297792        0.30629940845810        2.38128944545266
N            3.78161730318349       -0.11250463987822        1.17831727990776
C            5.14686809217549        0.05754472759689        0.95164971946556
C            5.80427661250947       -0.56779625060684       -0.13544137702562
C            7.27380800230100       -0.55373181057831       -0.26002909841339
C            8.08589173190421       -1.04850587082614        0.76445926918461
C            9.45665958420912       -1.03481023563710        0.64210740469459
C           10.04592268617255       -0.52737045882725       -0.49928400880116
C            9.26039344697072       -0.03337528222178       -1.52217879894954
C            7.88902049771499       -0.04612332503445       -1.40782305958027
C            4.98763741602844       -1.20545256682282       -1.10068620617131
C            5.25917825470482       -1.96312790472387       -2.30219322426369
C            6.40982350286106       -2.70070455917290       -2.76626902124301
C            7.50502697974825       -2.98167382484020       -1.93670733419410
C            8.58431879565774       -3.69046621189866       -2.38697818021350
C            8.59834252108756       -4.17340067200904       -3.68542746707454
C            7.51675647243426       -3.97229859673904       -4.50474006970070
C            6.38808339255500       -3.26145216131531       -4.07174554443156
C            5.18878615345877       -3.15320462713091       -4.90183498841427
C            5.15132874442905       -3.64451993916904       -6.21438100420524
C            4.00930675053214       -3.58164666489306       -6.97167275007387
C            2.85648099803064       -3.01996748494211       -6.44729567015606
C            2.85710546573297       -2.52313374753711       -5.17145590023382
C            4.00704658810866       -2.57727262798645       -4.37104262238694
C            4.04753045758805       -2.02201080257280       -3.04001725396532
C            3.01048345678180       -1.48106852573533       -2.22885206726663
C            1.55537501251976       -1.43213873146810       -2.46492076296395
N            3.60291319831310       -1.04329844843047       -1.11164648960266
B            2.79508281081755       -0.57268045784999        0.10106632263280
F            1.99001357542279        0.49979425549178       -0.26189383655476
F            2.04226310569677       -1.63698260081955        0.58189324498344
C            5.60189625520295        0.79808292081904        2.10749458124107
C            4.52285040730545        0.83508195935436        3.02955329240680
C            4.69861940588939        1.34680519379659        4.36703843607953
C            3.69273169012785        1.26272344165061        5.34017986867130
C            3.90118963294201        1.71180287076145        6.61666707879562
C            5.12640071721253        2.25481656888954        6.96794270567188
C            6.13116695258826        2.34709114454476        6.03861079337319
C            5.95362968151871        1.90374868166799        4.72049839846032
C            7.00469183186643        2.04087673216141        3.71260540949625
C            8.19308353197973        2.73475826035563        3.98234105691898
C            9.12984882262152        2.96341979225852        3.00669678435744
C            8.90279262810004        2.52809453386917        1.71106520122076
C            7.76079715393723        1.83601773624618        1.41629134315027
C            6.81373247407702        1.52439876644524        2.40268120453536
H            1.84538731912973       -0.51562159464922        3.61443381702431
H            1.31539292075647       -0.01550312485830        2.01417785169280
H            1.64244285461607        1.20852879726118        3.23402030422190
H            7.62229235126100       -1.43880986300874        1.65388866395495
H           10.07144866250659       -1.41700514740691        1.44030510437875
H           11.11952620967981       -0.51640596507036       -0.59174974539625
H            9.72173831156058        0.35968098379839       -2.41318092722845
H            7.27238425977501        0.33441873044970       -2.20365903390491
H            7.47830511560668       -2.65816802918318       -0.91491446561738
H            9.41979158626939       -3.87837009882568       -1.73259084275577
H            9.45036677275276       -4.72931130595375       -4.04136535575696
H            7.53640652350856       -4.39473893372196       -5.49229151721249
H            6.03362547412043       -4.07574402694689       -6.64996310449654
H            4.00709206404670       -3.96740290903029       -7.97811606976242
H            1.96295256956722       -2.96786257464284       -7.04786360908032
H            1.96522812487083       -2.06492171476204       -4.78844139804391
H            1.17151323729152       -2.40542178538515       -2.77075618319892
H            1.30468593051729       -0.69277204475149       -3.22552598742707
H            1.03813918272893       -1.14819378373804       -1.54830909773167
H            2.74809882329686        0.81871918160415        5.08993638930155
H            3.11617942077451        1.63624188612717        7.35142176822546
H            5.28915274338583        2.60281233659430        7.97495857097417
H            7.07441734327628        2.76289247145527        6.34116516771347
H            8.37481457141539        3.12110830679213        4.96812371341822
H           10.03256298476272        3.50404479542277        3.24014154495001
H            9.62280375057435        2.73872575601624        0.93726816825944
H            7.56717808369435        1.54767107939091        0.40161873875611
