82
 energy: -17.175941917625 gnorm: 0.000525183005 xtb: 6.5.0 (97a52f5)
C            1.10994187181089       -0.08175471642251       -0.14795114265525
C            2.55355552569443       -0.05925824071494        0.15146045222253
N            3.10683121911047       -0.09238159100142        1.37176658650492
C            4.50160839954315       -0.06202061148396        1.31562774510960
C            5.33787741834436       -0.10236447369343        2.44455049193032
C            6.80728178387639       -0.04906499801449        2.32995924087250
C            7.61772190307250       -0.93754828835205        3.04080979289361
C            8.98894261357530       -0.88392643642704        2.93244345406954
C            9.58386578065408        0.05624625102588        2.11453576957197
C            8.80127863073029        0.94451443017002        1.40377852746243
C            7.42977162223671        0.89413262562532        1.50867343943530
C            4.68911773014769       -0.18329754680860        3.69188287181519
C            5.22241825834707       -0.18769328416492        5.02028881672765
C            4.17962135795088       -0.23798281959141        5.90314372655787
C            2.95664779823419       -0.26230499374624        5.16303508774852
C            1.62343897070087       -0.28928895314801        5.62723355372207
C            1.26131212686640       -0.27715798213404        6.93543253262293
C           -0.08904306393794       -0.28370763181793        7.42010789936677
C           -0.33266570970822       -0.19914279781095        8.79960194862008
C           -1.60991184070137       -0.17704281668262        9.29262856499300
C           -2.71969724948477       -0.23633881369887        8.43725887371409
C           -4.09567675512028       -0.20898239299035        8.95461217570535
C           -4.44569260558763        0.56443857156461       10.06986594668309
C           -5.70236813071494        0.31699069399067       10.80399127511766
C           -6.45858861890069        1.38169283860084       11.30304501579219
C           -7.63012194565198        1.15716957962767       11.98921908591662
C           -8.07329776861105       -0.13364209095951       12.20092890428218
C           -7.33658754961449       -1.20126614105328       11.72689267115538
C           -6.16484807648141       -0.98141215928080       11.03994397701968
C           -3.59081699200120        1.67790539213897       10.52859423614533
C           -3.41170081312237        1.92739610307872       11.89243485039240
C           -2.62439681394407        2.97107382127066       12.32234317629613
C           -2.00199923518978        3.79494724092234       11.40494217563911
C           -2.17385373754468        3.57381380906054       10.05262850531581
C           -2.96043398252984        2.53201320487465        9.61805176494943
C           -5.11375995872728       -1.01399375901006        8.24360135878690
C           -6.38091117049123       -0.49506298736311        7.96462910266986
C           -7.31905401147304       -1.24539084836185        7.29334175252754
C           -7.01462204745377       -2.52753698739248        6.88059316217301
C           -5.76584327155644       -3.05727202112361        7.13990315873328
C           -4.82427760126596       -2.31039928882006        7.81071213802380
C           -2.47538983921249       -0.34714536570940        7.06110275255260
C           -1.19901287677601       -0.36463622695637        6.56450450071330
N            3.32262445631297       -0.22481293519981        3.84810084805938
B            2.31814284627484       -0.17715944787995        2.68708007614497
F            1.51989540773120        0.95337843744068        2.81531145849123
F            1.55385988149092       -1.33789071192052        2.69173881458601
C            4.81182426726560       -0.01935020819171       -0.06633513279567
C            3.62442907425752       -0.01448748641519       -0.76809515420469
H            0.53144943896124       -0.08680261335807        0.77616374500937
H            0.84454108236994       -0.97225088199428       -0.71807472542207
H            0.81807292717681        0.79543660216997       -0.72576418762790
H            7.15371158901482       -1.68224685059398        3.66401136254848
H            9.59971810544805       -1.57880978785594        3.48527863427715
H           10.65762538312483        0.09719894783045        2.03156299854390
H            9.26539364231253        1.68095547755962        0.76830810408604
H            6.82062049048875        1.59978008264509        0.97083349287972
H            6.26659150986261       -0.13563804942794        5.27662101959969
H            4.26285640020802       -0.24561636276274        6.97655399308970
H            0.86417640340816       -0.30255164187541        4.86845105829417
H            2.04238965803199       -0.24375413221645        7.67356870821230
H            0.50435535770365       -0.14367868417554        9.47423153443113
H           -1.77551440824557       -0.11625979780741       10.35402545858913
H           -6.11619615283518        2.38769790365406       11.13283277509519
H           -8.20395572111389        1.99019617157873       12.36096095452707
H           -8.99219652308960       -0.30745673689393       12.73654349290634
H           -7.68046637540389       -2.20870326611546       11.89482864608614
H           -5.58797738830490       -1.81388753434550       10.67664222823424
H           -3.89317706922163        1.28256813125853       12.60705870842885
H           -2.49248462393078        3.14593037394056       13.37752183434510
H           -1.38438543628084        4.61056354004122       11.74368730381486
H           -1.69020063924196        4.21772167750703        9.33645890437940
H           -3.09945481964828        2.36359706129579        8.56434034178532
H           -6.61506492402278        0.50622962936612        8.28188599576576
H           -8.29273843530120       -0.83112834549592        7.08904125960257
H           -7.75034679768074       -3.11374632250640        6.35484105284585
H           -5.52806961551697       -4.05733036147371        6.81628353608485
H           -3.85167664025963       -2.72292159773101        8.01639858891707
H           -3.31495601532566       -0.40161869692500        6.38997321339449
H           -1.04797078157236       -0.44270470324844        5.50307267714387
H            5.80103008931638       -0.01321185205892       -0.49108919868457
H            3.52124301112917        0.01005767496656       -1.84027434135695
