78
 energy: -15.392957905756 gnorm: 0.000218437089 xtb: 6.5.0 (97a52f5)
C            0.67212678595473        0.85064727082582       -0.73069837066273
C            2.08129283844439        0.58590982326391       -0.39178104763308
N            2.85548063577774        1.40418453068000        0.30749756576282
C            4.16238280463517        0.89197948550988        0.49399895023889
C            5.19656776525081        1.58562502736832        1.17556495531576
C            6.57572591093501        1.05378127211772        1.25116544448642
C            7.13370501735846        0.74660187876689        2.49472405190099
C            8.40703534102561        0.23841545522389        2.59564912624831
C            9.15514608068843        0.02615282626343        1.45709861561592
C            8.62828443951009        0.33326112298464        0.21905423563595
C            7.35317628467262        0.85507886894660        0.09184926996447
C            6.83681341234024        1.20254984370976       -1.26181111937961
C            4.84065606202509        2.80225546749017        1.75375939186650
C            5.60950339441346        3.73206818233740        2.50221261291544
C            4.78823207997570        4.78338610092866        2.83901109624191
C            3.49602226734639        4.54546943009094        2.30730528825630
C            2.29463476284162        5.39426913456657        2.41425948947766
N            3.56094620034564        3.37252863328775        1.67215450888178
B            2.38940215390042        2.73830194406283        0.90825741350013
F            2.00065906980964        3.58896105458068       -0.11784687212277
F            1.34616147304070        2.49860463775336        1.79282922972137
C            4.17138144192939       -0.34671856786306       -0.11327135911782
C            2.88896826463443       -0.56900918842841       -0.69126050198819
C            2.51704234817766       -1.73353143824894       -1.40960743653768
C            1.31455930551393       -1.95884819072722       -2.14119985369835
C            1.37764338377912       -3.22645537457857       -2.68529205917499
N            2.61619931562850       -3.76968520098933       -2.26389585484915
C            3.30897357884438       -2.91905919274930       -1.53100013848798
B            3.06049387125638       -5.19997290752412       -2.60607469729472
F            3.20157397209217       -5.92379626218359       -1.43059773139451
F            4.24794832567431       -5.14623227844453       -3.32198631822786
N            1.97862140245740       -5.86005611325326       -3.47645755452681
C            2.05349536054902       -7.09269038050331       -3.97161522435106
C            0.88913511826918       -7.29628449819260       -4.74229609579459
C            0.12186036782516       -6.15426428835927       -4.69488471703195
C            0.80023236981708       -5.21057394053207       -3.87820923493678
C            0.45770857707154       -3.90843831093951       -3.52186949742403
C           -0.76632126492563       -3.24435822846809       -4.03367172181248
C           -2.02995676210717       -3.55113903273254       -3.49440041563205
C           -2.17153612863062       -4.55413599311416       -2.40278268945147
C           -3.15323051504877       -2.92590413328613       -4.00268956853297
C           -3.06733828820645       -1.98640825773635       -5.01839450002068
C           -4.28318778693759       -1.31040243204246       -5.55027579892143
C           -1.81845519152112       -1.67973419360732       -5.53271177092295
C           -0.67120288638807       -2.29523211957452       -5.06943052944924
C            0.65170428882962       -1.93522305704834       -5.65199291784397
H            0.33731836643542        1.76908223664868       -0.24776571290294
H            0.02751188454371        0.04029610369601       -0.39009278149552
H            0.54493036096637        0.97538584548245       -1.80596263568280
H            6.54226585656186        0.90344746449733        3.38019132623760
H            8.81901367751010        0.00276802457195        3.56316504480073
H           10.15227512073822       -0.37536564754384        1.53385730151257
H            9.21660275082749        0.17328408068493       -0.66831308820617
H            7.60761797471833        1.69069418400578       -1.85886444315990
H            5.98930825904733        1.88539696414068       -1.20157421763426
H            6.51343843528666        0.30903134235220       -1.79627077015737
H            6.65034755074291        3.62548644965840        2.75543221927804
H            5.07414315122343        5.65151480760147        3.40925014004241
H            2.51083117964655        6.32330260280484        2.94201067660599
H            1.50472352379314        4.86953179505600        2.95203582618614
H            1.91512598959502        5.64243538601962        1.42285956952453
H            5.01011019333994       -1.01783525617405       -0.15318770445561
H            0.50392247025062       -1.26817831789453       -2.28027007796538
H            4.27099149655795       -3.11959253259278       -1.09333878423210
H            2.86744101376523       -7.77861186550828       -3.80402082853855
H            0.64458797692930       -8.19700831635013       -5.28213187136555
H           -0.82273563541189       -5.99359415517197       -5.18596478580044
H           -1.27349370637145       -4.59532097951635       -1.78596328286976
H           -2.34545181748909       -5.54955887826046       -2.81196305856023
H           -3.00829313224210       -4.30723769223276       -1.74868071240640
H           -4.11794701839085       -3.17211988147881       -3.59640688378652
H           -5.18936737742800       -1.69053456864395       -5.07809115029257
H           -4.37577931440612       -1.46946796999563       -6.62510844704145
H           -4.23827734101249       -0.23579247015118       -5.37077960510930
H           -1.74252103960718       -0.94729169660129       -6.31657162584610
H            0.54663470976849       -1.56502755388892       -6.67212271287813
H            1.31529348077267       -2.79980431145126       -5.68280378660265
H            1.13724371049303       -1.15900360340752       -5.06007878597619
