65
 energy: -12.763233032775 gnorm: 0.000931986343 xtb: 6.5.0 (97a52f5)
C            0.80463735130908       -1.15766138326824        1.00388822854454
C            1.91750224916499       -0.62024776622800        0.20154976426344
N            2.63293223747318       -1.33027858443339       -0.65804793110171
C            3.63595748478034       -0.56236563775983       -1.29844836518711
C            4.51728508405183       -1.08924279793877       -2.24882908734002
C            4.39696838291330       -2.41479809220432       -2.57417220292927
C            5.13046756034000       -3.22880060646471       -3.48761435345779
C            4.60285526582019       -4.49349459439998       -3.43559021549617
C            3.53585237758288       -4.51369618208006       -2.49557978553736
C            2.66927592841549       -5.65146481104194       -2.13875709955180
N            3.43840329938717       -3.27718575170294       -2.01039119096557
B            2.41233950092098       -2.82091243731863       -0.96122918925128
F            2.59637781318151       -3.55383826848016        0.20250071283914
F            1.13308242528200       -2.99549566075531       -1.47076362511614
C            3.51901964775176        0.71623203047236       -0.78389539232250
C            2.45418195978301        0.71830143506770        0.15856931919595
C            2.03187126749654        1.85119667523729        0.90083544697900
C            0.98584232138323        1.91893685741294        1.86651009628679
C            0.91731782222942        3.21711887966843        2.33268329618763
N            1.92408264094050        3.93185100331435        1.64016745659594
C            2.59261126262527        3.16325370446002        0.80094617067418
B            2.17778839367168        5.43183216420639        1.84991573846378
F            1.99114815556761        6.09468927787186        0.64621363778897
F            3.46339500682042        5.60986765007974        2.33965342571669
N            1.16922863772484        5.96562836921536        2.87929701171945
C            1.10658064127821        7.22936012731464        3.29155097643092
C            0.06850720077837        7.29826834288695        4.24393076270445
C           -0.48378913297924        6.04505630107294        4.38815093433645
C            0.20740222689624        5.16425028217178        3.51488513501819
C            0.04299583412545        3.80045314454907        3.28410711032202
C           -0.98650166881929        2.99574949010745        3.98535429515147
C           -2.34488852400218        3.10787736670094        3.63146315324924
C           -2.78751885230611        4.04590493723887        2.56223258224984
C           -3.28366147918493        2.34207675683269        4.29636066018400
C           -2.92281579377856        1.45141536116345        5.29488873873639
C           -3.94298025586922        0.60933896919097        5.97887130334375
C           -1.58276584447320        1.33606835328309        5.62600361319774
C           -0.61209452627485        2.09678064785626        5.00240171017652
C            0.81646048512813        1.93977238939734        5.39460489431773
H            0.65620798285517       -2.21386009471620        0.77623318751751
H           -0.12674457379482       -0.63635293225027        0.78353983469135
H            1.01422293906185       -1.07425889091662        2.07023760894206
H            5.26520724678534       -0.47159236505660       -2.70899267980785
H            5.94940776014840       -2.89978620196337       -4.10411409607333
H            4.93448591257852       -5.34071975094784       -4.01254291014485
H            3.26154226427077       -6.53666476071679       -1.90642288072862
H            1.99278907337451       -5.89499731616891       -2.95816481412409
H            2.06625608793894       -5.40570256753665       -1.26423082459310
H            4.13441033774718        1.55650163648388       -1.05003974728455
H            0.34775373763591        1.11686003802310        2.18680254267651
H            3.39810804484485        3.49346787951144        0.16890875412500
H            1.74708926391121        8.02470861334901        2.94737806213687
H           -0.23884277541093        8.18633322044513        4.77256689994026
H           -1.29376625170165        5.77124237545898        5.04252243501821
H           -1.96515889349648        4.30686410359608        1.89560641331598
H           -3.17627515651048        4.96853430543467        2.99432586457364
H           -3.57436654162045        3.60022312665819        1.95260062679762
H           -4.32026138985155        2.43456852748234        4.02555939351512
H           -4.95125394956265        0.98316020092987        5.79905793970207
H           -3.78065448310097        0.59947390594175        7.05710613697998
H           -3.89733537549319       -0.41950184694684        5.62051587036480
H           -1.29202247274774        0.63759180063414        6.39032656075748
H            0.90722997417351        1.64771632752443        6.44111808018410
H            1.36478864600097        2.87316493435140        5.26526845155501
H            1.30330820483246        1.17599778869163        4.78799555353939
