24
 energy: -4.692346538830 gnorm: 0.000583789542 xtb: 6.5.0 (97a52f5)
C            1.08017688196195        0.19499871696045       -0.24123652177381
C            2.51427058934236       -0.01136642662031        0.02850517719184
N            3.02734196975646       -0.71657311587946        1.05379860426787
C            4.42935605993421       -0.72351502998802        1.03073279442346
C            5.20627869799049       -1.37305227186609        1.97393455458953
C            4.55906966321025       -2.05139822839083        2.99148105174974
C            5.06298981748519       -2.79607293853959        4.08517176169582
C            3.97959091556706       -3.26852158816589        4.80919175414716
C            2.79795419144656       -2.83474949892140        4.19089481021043
N            3.16316061728875       -2.11719478078554        3.11911681816523
B            2.20329500285438       -1.43543160674200        2.13228967234817
F            1.43722031477847       -0.50152344188086        2.81221095267172
F            1.41057460977164       -2.39831920764485        1.52757070878860
C            4.78409314876960        0.04195497881174       -0.10495109905429
C            3.61277984562383        0.47069200763475       -0.70818484589517
H            0.47808807801318       -0.31052229881095        0.51455889410912
H            0.80642721416794       -0.20638230235512       -1.21698535844167
H            0.82935795036542        1.25557111953710       -0.22101967066206
H            6.27823672934973       -1.35059556829767        1.91842036259802
H            6.10368843495564       -2.96022712065472        4.30744944778671
H            4.03467824159971       -3.87046089730284        5.70203450240919
H            1.78073769088199       -3.02301427583942        4.49279063175342
H            5.78798165380065        0.24958486889301       -0.43390903600745
H            3.54474168108452        1.07566890684846       -1.59696596707162
