47
 energy: -9.930954370575 gnorm: 0.000899946677 xtb: 6.5.0 (97a52f5)
C            3.30658333055825        2.63378174238618       -0.24205981664611
C            3.46253527797463        1.20512382595155        0.09067868702232
N            4.45660453697893        0.40372372071634       -0.33421864083604
C            4.32390969018692       -0.89976134966406        0.15318654555744
C            5.29670928351186       -1.90609169141613       -0.10434761109182
C            5.27878683132584       -3.31201766977860        0.25740621376933
C            4.06671346242010       -4.05060727088966        0.49340630895525
C            2.79697009194342       -3.58163573609549        0.09976694219729
C            1.65935984264307       -4.29069962667736        0.35934838269009
C            1.72818616600503       -5.52546194698656        1.00899193563067
C            2.93696368718851       -6.05376032353215        1.34509623251869
C            4.13780551767630       -5.35642357313444        1.06233959562496
C            5.38168132002982       -5.95756380788831        1.26869085685818
C            6.56443683746908       -5.33766575630532        0.86837638502122
C            7.80611236833822       -6.00482667890071        0.96690461555261
C            8.96278180988336       -5.41895119248529        0.52273448713901
C            8.94132322405799       -4.15200148554046       -0.03264877353532
C            7.75040814354786       -3.43707902102327       -0.13749998893540
C            7.69908676978835       -2.12525392956074       -0.69486349297923
C            8.67687070307050       -1.24631989879216       -1.24602385448866
C            8.06905764746199       -0.02987951462849       -1.51463389033468
C            8.67706680514575        1.18391671020983       -2.09138840205203
N            6.75703290388981       -0.14830376423397       -1.14092085347907
C            6.48703165781365       -1.41161704272678       -0.65397904302969
B            5.64018476775563        0.90454103577424       -1.18841002304630
F            6.12065627197856        2.09188569682791       -0.65109845563149
F            5.21677355587143        1.07075484521563       -2.49896365087601
C            6.52043510318245       -4.01481487410931        0.32976716862797
C            3.18811767446634       -0.85924123134651        0.98828564177029
C            2.65740943017089        0.41982539305132        0.93240729840344
H            3.34026464212310        2.77845558518178       -1.32223070875384
H            4.11525650702405        3.21818219886013        0.19731336267381
H            2.35828590421273        3.02534402494609        0.12645005152096
H            2.73216841901348       -2.66540195754252       -0.45888963103884
H            0.70169162253393       -3.90114098721506        0.05519748688154
H            0.82274630938547       -6.07104934071976        1.21799039836538
H            2.99473273439920       -7.02373081556588        1.80792006494401
H            5.42249615952704       -6.94968807035190        1.67983256349761
H            7.83124152540927       -6.99559780419812        1.38640181659363
H            9.89673384209312       -5.95071247033055        0.60133682305148
H            9.85360968670749       -3.70270105695476       -0.38346274183528
H            9.71423487733295       -1.47865376489688       -1.40959835416882
H            9.75477637996265        1.06976463335827       -2.20943917609794
H            8.49194585342036        2.04398928317837       -1.44752318719766
H            8.24580610085031        1.39923504069263       -3.06916243839550
H            2.82833057488223       -1.66344364648529        1.60686830311012
H            1.79025414880027        0.76975356362284        1.46752456647129
