60
 energy: -12.625394541438 gnorm: 0.000545016208 xtb: 6.5.0 (97a52f5)
C            0.95769589496069        0.34160194744782        0.13674718499998
C            0.05161828769194        1.34706396324716       -0.02722532152130
C            0.45537590603135        2.73927865994613       -0.35279669231499
C            0.35752016617728        3.74929175952347        0.60470428455717
C            0.75283426455507        5.03574014151812        0.31156280433789
C            1.24308076401211        5.34069291689309       -0.94305881440034
C            1.33282318716440        4.35633837075978       -1.90791624443213
C            0.94091383491786        3.06764050034102       -1.61925823145116
C           -1.39517019753283        1.05863416441340        0.07932445564196
C           -2.31889237085561        1.82877323366511       -0.62818496117735
C           -3.67005586910310        1.57538396825762       -0.54024359883097
C           -4.13072186731054        0.54937269748279        0.26019664184301
C           -3.23471230522910       -0.21921341887173        0.97609284781854
C           -1.88245028019821        0.03198511497933        0.89025643075700
C            2.40641656355253        0.41255269232052        0.13789831033812
C            3.14422369369131       -0.77708257800152        0.13027897756103
C            4.51702235380805       -0.76642301645878        0.14732878381343
C            5.23631588802570        0.43425664831389        0.17830495589292
C            6.68583380859736        0.38376462339600        0.17232077447803
C            7.58117610608722        1.39865908587497        0.33715583954031
C            7.16390065156311        2.78700487033533        0.66329814639294
C            7.20070820911240        3.78665226723869       -0.30915132082694
C            6.79265178500046        5.06865173815285       -0.01399897844058
C            6.35015404689816        5.37934017027691        1.25664805731363
C            6.32129276342299        4.40557626898596        2.23570854881939
C            6.72624713966059        3.12140981856910        1.94537923140037
C            9.03085960341372        1.12577010802324        0.22673214193562
C            9.94785755897408        1.90254172228205        0.93572390827862
C           11.30142050980846        1.66366712100958        0.84423164428834
C           11.77127762054991        0.64605240394616        0.03842645440667
C           10.88202168352661       -0.12862204383034       -0.67931887854280
C            9.52735593287046        0.10797423749146       -0.58980457633145
C            4.49733953122906        1.62123379256645        0.18700018280045
C            3.12625449197616        1.61060812598928        0.17633676320189
H            0.55707479971370       -0.64721689571720        0.27324249110622
H           -0.02264197871254        3.50514651273492        1.58194577463374
H            0.67947176144582        5.80563634264759        1.06253886905373
H            1.55381626528393        6.34771442990588       -1.16952092586650
H            1.71396500812724        4.59568962442419       -2.88749649353624
H            1.01512126463205        2.29474053184885       -2.36510314729960
H           -1.96032181289380        2.62814910893094       -1.25324830325227
H           -4.36854868793100        2.17889600348416       -1.09686669829644
H           -5.18796527019011        0.35071489122605        0.32868433090794
H           -3.59464265496034       -1.01579528855936        1.60692052653177
H           -1.19381902481266       -0.55486992349418        1.47275931160061
H            2.61705105065861       -1.71571102134848        0.10740133610247
H            5.05876703915841       -1.69696114370693        0.13818647782493
H            7.09825923281232       -0.59909976206179        0.02821291199690
H            7.54331127820882        3.53754263464803       -1.29884667616680
H            6.81830609462271        5.83049253130619       -0.77616087609357
H            6.02947883537977        6.38288579726315        1.48470394689766
H            5.97797495644367        4.64977079235619        3.22757038037564
H            6.70046687312206        2.35670208382084        2.70275196321425
H            9.58217853014566        2.69551204361126        1.56477362402696
H           11.99460958501653        2.27199626765758        1.40224597592557
H           12.83041759700737        0.45876792365312       -0.03286065401021
H           11.24908320997919       -0.91847301641806       -1.31449852021774
H            8.84390479105759       -0.48330761628433       -1.17393666713404
H            5.00897796706121        2.56402326200406        0.19120120487444
H            2.59887393256883        2.54438180999823        0.20960008461135
