40
 energy: -8.263832523717 gnorm: 0.000636309799 xtb: 6.5.0 (97a52f5)
C            1.30229080388572        0.38579183329115       -0.71004913597187
C            2.69936627835299        0.16243655101823       -0.26644299132149
O            3.25537600904073        1.06903343659127        0.55448951165043
B            4.71976998099638        1.03163848896689        0.73965982778737
O            5.09923677547952        1.66943005570721        2.00863968775628
C            5.89798218720005        2.70761554657355        1.69918876149461
O            6.42787080094053        3.48868827736960        2.45704097380574
C            6.05950698088381        2.77725200623055        0.20371352489518
O            6.73589279627876        3.61435465966024       -0.35024793155914
O            5.34892931764088        1.78390867434259       -0.36124193084755
O            5.22226607542754       -0.35573481403966        0.70229104133477
C            4.67753849989736       -1.22565643263163       -0.18197384083328
C            5.39676355416344       -2.43299821945952       -0.53691324827514
C            5.28544439006972       -3.02473094721567       -1.84481099622888
C            4.69475436397857       -2.35354564078574       -2.93014075073603
C            4.58522829601894       -2.94145874126769       -4.16301519897457
C            5.07584941826824       -4.22539774098195       -4.37812361697259
C            5.70448010211075       -4.89672109662644       -3.36869619294117
C            5.85238077493665       -4.31089040985170       -2.09188637420210
C            6.57870284920600       -4.95584062055315       -1.08758978552868
C            6.79651274403321       -4.35912656194162        0.15654506441845
C            7.56807621651995       -5.00579247916653        1.14735674626836
C            7.76778005710954       -4.42727331161054        2.36841008107607
C            7.20850599963662       -3.18569902871630        2.65341103010534
C            6.45534764631679       -2.53488956193546        1.71277686424752
C            6.22449847784373       -3.08383401833185        0.44152783565759
C            3.38899014130070       -0.94519188981511       -0.68080543147462
H            0.88804621181075        1.25955614462914       -0.20750591427226
H            0.67342440098972       -0.47224737724519       -0.47232963237076
H            1.25858647559166        0.56095811773675       -1.78500913740775
H            4.37053051755195       -1.33586223794374       -2.80576947341457
H            4.12424673883828       -2.40399012852168       -4.97566959695224
H            4.97659127868047       -4.68087095273071       -5.35010838969477
H            6.10999226973675       -5.87834986748608       -3.54340781733295
H            7.00770863264058       -5.92047754662525       -1.28835171594753
H            7.99928223134928       -5.96736410931491        0.92835789183940
H            8.35929188427578       -4.93218571358127        3.11489392656658
H            7.37067545314511       -2.73553898002564        3.61921940247131
H            6.03726893294932       -1.57228545573375        1.94344368562087
H            2.88998343490951       -1.66993990797255       -1.29718675374485
