90
 energy: -18.989271267999 gnorm: 0.000485762460 xtb: 6.5.0 (97a52f5)
C            0.16981056948422       -3.40984147340643        1.24225419907443
C            1.48037812756529       -3.32751565544374        0.69604740663843
C            2.42217139766881       -3.21011200818676       -0.27808595373082
C            3.83566759123187       -3.23202932758361        0.03409156257783
C            4.86825249879092       -3.07024886412051       -0.96045314566286
C            4.87860784122375       -2.87081815681271       -2.32935701467052
C            6.10393027072118       -2.79419214355251       -2.99933177451595
C            7.30901749178673       -2.91688141298009       -2.34003315730321
C            7.34411289504039       -3.12980285657198       -0.94184954030140
C            8.47274502658419       -3.29907277283947       -0.10705206961580
C            8.31432621278510       -3.52020744029854        1.24361520463923
C            7.04971505960161       -3.58945367525789        1.84765093348351
C            5.92645219580875       -3.42507207684885        1.06461162538533
C            4.47298560216344       -3.45015465332534        1.29412874011431
C            3.88953959741961       -3.67733185554347        2.48626526462954
C            3.90299965116422       -3.94443778835935        3.88349243690797
N            2.09139833533077       -3.06014724977871       -1.54758499778311
B            1.36769197731370       -2.90414784100943       -2.82839060562547
F            2.29732022508546       -2.73004801140986       -4.02241827589750
F            1.20315193880726       -4.15965170129569       -3.60433502601000
N           -0.22588374811708       -2.43765153268726       -2.53135913657745
C           -1.42884384080889       -2.88436275261371       -2.11727731057339
C           -2.57907093504903       -1.96191372520857       -2.19657541722418
C           -1.59762847109680       -4.21815548033673       -1.66683272369984
C           -0.51303126654247       -5.09001162307650       -1.50510084107944
C           -0.68903931240542       -6.40287226148889       -1.05492670174571
C            0.43702795764633       -7.27737127583787       -0.85531652261635
C            1.83147570072246       -6.82967323441533       -1.08273054085029
C            2.29032299558686       -6.51466056109830       -2.36256377088970
C            3.60976477087811       -6.18762826744998       -2.57612767134302
C            4.50013793042253       -6.17282017316281       -1.52150501623589
C            4.06241614285763       -6.46316434283673       -0.24523358642295
C            2.74187425622348       -6.78014180086013       -0.02443889618777
C            0.18055615833491       -8.57619633029191       -0.42461918157452
C           -1.14426292112012       -9.03350973281668       -0.15612403311238
C           -2.25033443982682       -8.20459838810009       -0.30907624023176
C           -3.62059985614760       -8.69379444355352       -0.01896962686306
C           -4.52606684566991       -8.93869394163346       -1.05242679554076
C           -5.79206580873535       -9.40542666900536       -0.78129146621620
C           -6.18086243784030       -9.63613659960228        0.52326642191086
C           -5.30012306779200       -9.39546103213343        1.55898751066298
C           -4.03329172539260       -8.92735571504464        1.29374125679190
C           -2.01755571709986       -6.87051957035603       -0.76453809933810
C           -3.08953773789328       -5.96989200007570       -0.92502792656078
C           -2.84263776767771       -4.73394034441369       -1.34756939412162
C            0.49951850660623       -1.45746429322210       -2.99300686499262
C           -1.07205059128786      -10.44161616490401        0.23542951379844
C           -1.98206826650182      -11.41708957243145        0.58188837871551
C           -1.52069922200004      -12.70880840335226        0.87770356486490
C           -0.18617127104535      -13.03878178776988        0.82602651022991
C            0.77969814463785      -12.06984787421323        0.46557050886418
C            2.17746443477629      -12.24132445360507        0.33391593752566
C            2.97418567425246      -11.19158556175748       -0.05946712301745
C            2.45008361952269       -9.92027521034848       -0.34032718131332
C            1.09488985037287       -9.70449376149438       -0.20951047901651
C            0.29105109228400      -10.79170514731220        0.18694742781874
C            6.10374779487130       -3.19550107607074       -0.30393386415048
H           -0.28533998949997       -4.38274276428977        1.03399609406930
H           -0.48125957447446       -2.63762924687761        0.82119735255201
H            0.18828835042678       -3.27803340292513        2.32846192119443
H            3.94509155465447       -2.80321544265505       -2.85780587009847
H            6.10214367350787       -2.64044925779627       -4.06571322119033
H            8.23665212647203       -2.85866163168490       -2.88142322904477
H            9.45500422610581       -3.25628176608554       -0.54356110655304
H            9.18928839458174       -3.64780584636430        1.85916288124836
H            6.94563910774415       -3.77096842816787        2.90242177050454
H            2.88530365886477       -4.02444616730198        4.27784937714476
H            4.41291357609788       -3.14672225817959        4.43251440047360
H            4.42016471274514       -4.88429813528011        4.10022900499688
H           -2.24699212616269       -0.95052292860040       -2.43116535059643
H           -3.11782088174121       -1.92966942111840       -1.24929975144279
H           -3.27535812225528       -2.27839971263216       -2.97341728591996
H            0.47753297804645       -4.72918186063761       -1.70499593829251
H            1.59611154136603       -6.53197170015261       -3.18509457315791
H            3.94623310306001       -5.93550452835947       -3.56840322058576
H            5.53115987781785       -5.90861545711748       -1.68990824417887
H            4.75326985604533       -6.42926247990416        0.58106822457229
H            2.39643315020580       -7.00734643963471        0.96935350615704
H           -4.21586080532459       -8.76379222946048       -2.06815471530457
H           -6.48049891400815       -9.59278972691344       -1.58896329174920
H           -7.17227575493294      -10.00284792858082        0.73300474832359
H           -5.60535655869118       -9.57410389395470        2.57695674696389
H           -3.34261147658653       -8.73819227974168        2.09727893592831
H           -4.09821811201635       -6.28066729261588       -0.70473101711845
H           -3.03004598588521      -11.18363610061663        0.61779824838932
H           -2.23802388688929      -13.46531565683330        1.14973233096764
H            0.13896634822615      -14.03905068280415        1.05192743064635
H            2.60554457176114      -13.20688447224402        0.53825745795085
H            4.03560957244934      -11.34746345870501       -0.15912294923810
H            3.09234751839568       -9.12091532982553       -0.65929709901668
