66
 energy: -13.480030350568 gnorm: 0.000826545670 xtb: 6.5.0 (97a52f5)
C            2.16293487154604       -0.40988078728362       -1.31079227460563
C            2.01370365159849        0.18998488047134        0.03354150919891
C            3.06803473407057        0.53438670662617        0.93418545609411
C            4.45584249085214        0.42652486050019        0.83275644220550
C            5.21575843849270        0.86972825409499        1.91428669247231
C            4.59639471072095        1.41967471185170        3.09008097233903
C            3.21661205046455        1.52756335848503        3.20009256691772
C            2.46734954603472        1.08179236089915        2.12089602850943
N            1.11514071151419        1.04149264470754        1.90594181829781
C            0.80254211919593        0.50874388807413        0.66773172370798
C           -0.52813782162708        0.39360734784611        0.19307314264223
C           -1.55549969548607        0.82088960371811        0.96944386358648
C           -2.94778622501206        0.95408620281290        0.70568569187763
C           -3.71798063364551        0.61966611833169       -0.40911370955723
C           -5.06487401009117        0.88411471646843       -0.39333229704074
C           -5.68221504044577        1.48834297955649        0.72168787850309
C           -4.96783081383584        1.83485918641009        1.82641335101096
C           -3.56498637696734        1.57702392341104        1.84798750439241
C           -2.61820070989471        1.82371930537984        2.81158804207519
C           -2.78650717098902        2.40420008879671        4.14946087143776
N           -1.39573540576189        1.27352865158282        2.31508950810193
B            0.02731894164972        1.38716558331505        2.89276857858700
F           -0.74302914898910        0.21058955404819        3.32371969547279
F            0.30758240588527        2.41090671262408        3.76100205619534
C            5.65845417080650        1.78148153551233        3.98495241341440
C            5.62590808877179        2.36191221113760        5.24307706789398
C            6.82148457895886        2.61214054945275        5.86938999814948
C            7.11784437468169        3.21005631251202        7.15321137920126
C            6.30931635192426        3.71579469842166        8.16640551820838
C            6.91083307207043        4.23676263332045        9.29143203087577
C            8.29835673513862        4.26088474207883        9.41958123350538
C            9.11414960692347        3.76479986927341        8.42679232799117
C            8.52536037533841        3.23228531094163        7.28029974830991
C            9.09469928524957        2.65049375628783        6.08627616858064
C           10.51986251200745        2.48573915291296        5.75526864425492
N            8.07060950363740        2.31660289538873        5.31154783830482
B            8.22289194913471        1.66786727486599        3.92699697115187
F            8.86539602038061        0.44601845905291        4.06733296639238
F            8.93943194694214        2.52378914828475        3.10212006070736
N            6.83079812463853        1.43654101655338        3.32137440317152
C            6.63381976383218        0.89872589491211        2.11595815440983
C            7.68568970518736        0.45958283198825        1.18386740592836
H            3.19328075403759       -0.34218527853292       -1.65871742583595
H            1.53282992727096        0.10285797305824       -2.03794215358696
H            1.87981374552541       -1.46267956708656       -1.29834917929286
H            4.92308969476575        0.01865986132662       -0.04309444033091
H            2.74253722203392        1.94494422653027        4.06759151915449
H           -0.71365866375074        0.03392291627498       -0.80133764957538
H           -3.25197400621825        0.16028141043219       -1.26260913991165
H           -5.66535611699585        0.62706980468563       -1.25005349574061
H           -6.74253451813927        1.67799694469541        0.69383892617738
H           -5.43740304251705        2.29617787251838        2.67666964533763
H           -3.23668922115324        3.39546408019924        4.09147631866446
H           -1.82044062955863        2.49991108480706        4.64597676086834
H           -3.42345641029822        1.77250990542969        4.76880149724824
H            4.69297206949157        2.61439089418765        5.71018453071411
H            5.23912710835350        3.69554248012276        8.06175410336333
H            6.29841976374144        4.63256673699070       10.08474726042995
H            8.74027251487290        4.67517610890016       10.31070426939539
H           10.18533023565332        3.78314189591778        8.52145145400855
H           10.99024897852061        3.45254127964683        5.57587851379525
H           10.63073222116430        1.88366173916321        4.85305138440709
H           11.05398984111352        1.98713865244372        6.56412995744493
H            8.66504322461528        0.53519496089152        1.65726148703768
H            7.69460102783689        1.08057799188852        0.28802802386007
H            7.53313649483583       -0.57711311990740        0.88343838954832
