52
 energy: -9.845705018198 gnorm: 0.000674772140 xtb: 6.5.0 (97a52f5)
C            0.77686717191837        0.14542627132165       -0.10698055409522
C            2.28308123697430       -0.12613952402862        0.00470630626620
C            2.58772551373388       -1.64508014604532        0.00194635855943
C            2.72369250407556       -2.29453192082562        1.40625802444576
C            1.38495085994752       -2.31056432577912        2.14991629106957
C            3.21122471740693       -3.73887426360800        1.21401321444174
N            3.69202945186083       -1.47161653713315        2.21619624196599
C            4.50545480861838       -2.14176567859891        3.23313894812720
C            3.58965699567808       -0.07239606178556        2.20912398869843
C            4.16131246046530        0.68964213162305        3.23786343276284
C            4.08114486622983        2.05641951841068        3.25070574447475
C            3.42436221683339        2.74323550015879        2.22676737943607
C            3.31977512920644        4.18456734224228        2.19129950774614
C            3.89204962286703        5.03480807044981        3.06821338397390
C            3.77532765496232        6.45766310578597        3.01146115317312
C            3.04653210422670        7.20426254628265        2.11618133161353
C            3.14029845590344        8.59001413395646        2.32207849503885
C            3.94279053500264        8.95033209859980        3.37822159103752
C            4.25172817098670       10.26184959445114        3.84567981640883
C            3.80477055534227       11.43708305006441        3.33880265369281
C            2.94244706661182       11.52107072701650        2.25080148954610
N            2.22316244278593       11.61968098441750        1.34358421936364
C            4.25615530289468       12.69699375878854        3.97106855955565
O            4.99208141550020       12.63935954064454        4.94243346685015
O            3.82256396861020       13.87374084890690        3.42723088750170
S            4.58655851914946        7.51710831005280        4.13114997312382
C            2.84939512085687        1.98399765848281        1.20249967390069
C            2.90816334276021        0.60661459463962        1.17676957894577
H            0.34523096310404       -0.35329937575560       -0.97538765572847
H            0.56414987819192        1.21049865055859       -0.19944648905702
H            0.24619205935901       -0.21126160222850        0.77325611951386
H            2.75639491663401        0.30143473166728       -0.89746061858825
H            3.51873942612149       -1.83115450308742       -0.54430770387212
H            1.80884213653600       -2.17291900224588       -0.55699314643421
H            0.60543952773328       -2.78121025419944        1.55227860216287
H            1.07111482213003       -1.29969834510082        2.40132597245907
H            1.47441251419388       -2.86133165885913        3.08509638469239
H            2.55350360175084       -4.27830189751198        0.53338227728327
H            3.21833941085998       -4.28659584475724        2.15488679805449
H            4.21501303757367       -3.75727289790319        0.79201343795964
H            4.74817597835482       -3.16147201692689        2.95057014999338
H            3.97422204788550       -2.15953604882608        4.18247927852585
H            5.45028555563222       -1.61792166035431        3.36063635716078
H            4.65564008623679        0.19007494043798        4.05106841008264
H            4.52362231763109        2.60430953833109        4.06299299857996
H            2.74163700742334        4.60141279765204        1.38709363905937
H            4.49255869590656        4.64038806658466        3.86728850283530
H            2.45535269818539        6.76956843727275        1.32590913996725
H            2.62993037077799        9.30827379843976        1.70285763875891
H            4.91486994969329       10.31997946821013        4.69180063697398
H            3.24726925150469       13.71184492157715        2.65561258863540
H            2.35530153517276        2.49918842853209        0.39856552336253
