34
 energy: -6.457981355076 gnorm: 0.000426109161 xtb: 6.5.0 (97a52f5)
C            1.30953590756080        0.84342572081868       -0.61931366940640
C            2.31516468736231       -0.09981348673178        0.04315533979538
C            2.51321934021892       -1.39344807196660       -0.78778416722521
C            3.37173864088633       -1.18031193614889       -1.99063363259579
C            4.23547261357581       -0.16752045759305       -2.13622209594452
C            4.99987310671033       -0.04312896950885       -3.37109305677656
C            5.92929010101641        0.92015041410699       -3.65377580429734
C            6.51189430864992        0.80548563094944       -4.93659713417729
C            6.03987667345961       -0.24844312063779       -5.67170755497296
C            6.43944163690457       -0.60210107359208       -7.01029526297931
C            7.36439261359728        0.04830095586063       -7.78026453912614
C            7.54984542717845       -0.52372366249928       -9.06143634339926
C            6.77421879424766       -1.61954526558302       -9.29838547405308
C            6.73564378892938       -2.38550264497695      -10.45886405040951
N            6.70178091898019       -3.02614665176582      -11.42860129306806
S            5.79281189819173       -1.95491943254613       -7.90339363255570
S            4.85500598893487       -1.12013861420408       -4.73707593231376
C            4.41836661740355        0.87829532301434       -1.06400194684663
C            3.68778051871449        0.58339276680450        0.26000581029724
H            0.33301961370793        0.37133708116694       -0.73239944644328
H            1.64997217473487        1.13090557672193       -1.61365182006549
H            1.17587776078167        1.75697753635918       -0.03909039966312
H            1.91370166666568       -0.38420158641682        1.03332453977533
H            1.53475866764391       -1.78470545748152       -1.09254421015675
H            2.96700885262552       -2.16991048270211       -0.15970013588494
H            3.27757042967865       -1.88184628041090       -2.80234595525729
H            6.19363772255456        1.70398037641597       -2.96137287418985
H            7.25820886187312        1.49156994908359       -5.30511896488369
H            7.90360025394363        0.91963114300842       -7.44330940052595
H            8.23968258062312       -0.13087336912513       -9.79289223017788
H            4.08126068312422        1.84211390675707       -1.46287936192726
H            5.49194183169553        0.99912660607166       -0.87419957574132
H            3.54979665057054        1.50981080253617        0.83180079480932
H            4.31655866724720       -0.05978322578484        0.88758348040053
