72
 energy: -12.694891527228 gnorm: 0.000669543715 xtb: 6.5.0 (97a52f5)
C            1.01748218793211       -0.31659529584132       -0.10243604165393
C            2.51743056976700       -0.27560421945534       -0.39824557479790
C            3.02558281888488       -1.62470320133930       -0.98600919256188
C            2.57519967491862       -1.84057793648498       -2.44548806206086
C            2.91530521724157       -0.64942819777093       -3.29842429275251
C            3.63695740835591       -0.77509397017150       -4.41075118815733
S            4.11810025025576        0.58165011212979       -5.42639097591334
C            5.10570105332873       -0.28687045850714       -6.58551782863993
C            6.09257525763615        0.31280188534523       -7.25479321083937
C            6.96272223953886       -0.32494119835818       -8.23523400173517
C            8.08610089369243        0.35594308366519       -8.70929117122042
C            8.93112508376172       -0.22174364722456       -9.62711728432676
C            8.68821618901971       -1.50504503104244      -10.11896739818639
C            9.60115126571472       -2.12908426254109      -11.10196480209529
C           10.98341904164544       -1.96419498013576      -11.00292942682122
C           11.83258041737213       -2.54704013936495      -11.91355988224723
C           11.33997481199074       -3.31760300703016      -12.96904640471786
C           12.27031823186567       -3.91600142542532      -13.91810902007327
C           11.93284057634395       -4.59019887384651      -15.01947430950613
S           13.14443630762660       -5.26473279580859      -16.08924916688326
C           12.12456476000878       -5.58545906644406      -17.48918331360709
C           12.55157918281776       -6.19472419504950      -18.59391728621204
C           13.96441311670806       -6.68291831347067      -18.75183914152215
C           14.00414265471215       -8.15743109550176      -19.20218256469139
C           13.11420298094955       -8.42119125304704      -20.45107483890977
C           13.72873349782159       -7.82608714862875      -21.71910643440599
C           11.66528330140356       -7.90441731189148      -20.21620983016194
C           11.63071324414931       -6.43142947738171      -19.76024528369054
C            9.95647734261848       -3.48273896641055      -13.06751925022566
C            9.10776383026954       -2.90280987124156      -12.15367122977226
C            7.56051386380755       -2.18277330876541       -9.65295309390188
C            6.71747151179647       -1.60742822054111       -8.73109328278197
C            2.43897055798015        0.68139302401906       -2.78915587050169
C            2.88800434505260        0.91347091968762       -1.33218487619788
H            0.76701593737200       -1.12858668754996        0.58202485377690
H            0.44393698323438       -0.47196191121829       -1.01577057623845
H            0.67244328164968        0.61693123977456        0.34481555203159
H            3.04107804130924       -0.11591730660164        0.56303116043839
H            2.67851071960186       -2.45318763781880       -0.35519788831530
H            4.12099771066192       -1.65587846115915       -0.93839548340652
H            1.49427146833624       -2.01720584233255       -2.48799175385734
H            3.03780524048127       -2.74302131529651       -2.86460740824304
H            3.96760173097759       -1.74744436009701       -4.72065934638746
H            4.88995342788945       -1.32616166466101       -6.73363506629810
H            6.27562801642499        1.35340492591526       -7.04623629429823
H            8.28919052142193        1.34724694350601       -8.34109577284527
H            9.78726716564216        0.32252403081546       -9.98701612083379
H           11.38369585633637       -1.38343569882393      -10.18981401847035
H           12.89662245407106       -2.41131924621603      -11.81920706576291
H           13.32024318982570       -3.79224199709425      -13.71276236740997
H           10.90477558004096       -4.73748576198975      -15.28261618595246
H           11.10619072412939       -5.25389993903636      -17.42802320185045
H           14.50705539539344       -6.55476269707856      -17.80723434395583
H           14.48577175941548       -6.04792274451520      -19.47726228240737
H           13.67446173301091       -8.79715175253378      -18.37438050337834
H           15.03691923661317       -8.46040892947296      -19.41767284290086
H           13.05665340920509       -9.51688740908907      -20.59213204204858
H           13.81680220889121       -6.74299593272626      -21.63859577293149
H           13.11763471320147       -8.03897774358407      -22.59759994038316
H           14.72898056754994       -8.22153995043216      -21.90259635954140
H           11.17091567404593       -8.52814346402260      -19.46141332938507
H           11.07801433517749       -8.03073057499994      -21.13494169621781
H           10.60891581268481       -6.13555290327337      -19.49082327743154
H           11.91921567128189       -5.77070241621333      -20.58583114719495
H            9.54771728343954       -4.07504463988982      -13.86668968406368
H            8.04356256538864       -3.03135524403455      -12.25215922037559
H            7.36276122996976       -3.17720530309540      -10.01449089341951
H            5.85243572628078       -2.15019691286680       -8.39351993012861
H            1.34625022020832        0.72532226112400       -2.86311802090118
H            2.80959479849714        1.48228664211072       -3.44050301957757
H            2.44412625652761        1.83826919843255       -0.94169494346528
H            3.97290966680817        1.07364904992884       -1.31030823463362
