62
 energy: -10.515994365480 gnorm: 0.000686197153 xtb: 6.5.0 (97a52f5)
C            0.98630414623084       -0.42133288631288        0.05750546642722
C            2.49872704467041       -0.35733633401431       -0.16156308782854
C            3.05404321966563       -1.69306678481381       -0.73608826566324
C            2.67024800156621       -1.90408487780271       -2.21508161572354
C            3.01954897010131       -0.70027697427407       -3.04693308919113
C            3.75563126851945       -0.81214773692708       -4.15126270234295
S            4.22688331368562        0.55274937868542       -5.16036321295345
C            5.18863659816304       -0.30790060541641       -6.34652169258732
C            6.01872111397299        0.33315152654569       -7.17206407681959
C            6.86215610562042       -0.29368257563437       -8.18255780845395
C            7.81524586395917        0.47136838886950       -8.85795558474900
C            8.62975038091065       -0.09088441921370       -9.81195995007656
C            8.52716357115916       -1.44439418733345      -10.14005215400272
C            9.40768851169744       -2.00751606194595      -11.15605849124458
C            9.35124813098652       -3.25407055165151      -11.62916858013801
S           10.46498769858370       -3.82194603749690      -12.85634684847864
C            9.68442087894667       -5.35264483913971      -13.24552629939216
C           10.16098109293702       -6.22428669509398      -14.13257804751422
C           11.43811711719327       -5.99233449623162      -14.88947750140780
C           12.40229137940429       -7.18677354068201      -14.73942271449039
C           11.72176439590354       -8.54619309941038      -15.07366707752020
C           11.48279415987200       -8.70493816603421      -16.57604153781671
C           10.40682286102093       -8.72358664604113      -14.25977548832441
C            9.45233558939304       -7.52156864179957      -14.41113815883917
C            7.57104717320233       -2.20919913029372       -9.46766470462896
C            6.75758129484049       -1.64714368250325       -8.51129880270512
C            2.51422434896684        0.62237483472709       -2.54356468001428
C            2.89878445469729        0.84398439351335       -1.06655336871603
H            0.71283441886288       -1.24260918099247        0.72174017072744
H            0.46217238656598       -0.57672663668399       -0.88507903975451
H            0.60566800378063        0.50356544395245        0.49369984228871
H            2.97118873211996       -0.19973728551492        0.82619754709074
H            2.69303505649553       -2.53190372871396       -0.12710326793555
H            4.14671642680584       -1.70752024938254       -0.64089927233692
H            1.59639849501659       -2.10441688324101       -2.30512155372675
H            3.17005516126441       -2.79274821428037       -2.62082751085079
H            4.09877196323323       -1.78000259135664       -4.46135268692502
H            5.09237147633070       -1.37435394841204       -6.38387093947554
H            6.08675815876494        1.40390682576819       -7.07806862209280
H            7.90989694996923        1.51709467108703       -8.61903435930792
H            9.35988244683394        0.51562525312618      -10.32047165456361
H           10.16255673367110       -1.35462508697373      -11.56105885561437
H            8.61611813547467       -3.94591849712635      -11.27037757213689
H            8.77114887877289       -5.57285851137249      -12.72771075077947
H           11.91264721957413       -5.06708992966235      -14.54044575596101
H           11.20417489872321       -5.82118333233536      -15.94655275432413
H           12.78873931936718       -7.21192233142543      -13.71316879359399
H           13.28052512392655       -7.04858146896889      -15.38317149055247
H           12.41530817565491       -9.34928641298596      -14.76095243450818
H           10.80560817934242       -7.93587812219388      -16.94665180118805
H           11.03617679922832       -9.67261043356999      -16.80994913501744
H           12.41291347921227       -8.61994715894287      -17.14019287143642
H           10.64770816004828       -8.86184264213969      -13.19859079065868
H            9.90446645527291       -9.64818882641349      -14.57219285684809
H            8.59019908421459       -7.62518925482457      -13.74022425458616
H            9.03414053189480       -7.49270268515298      -15.42392507535143
H            7.47081451514433       -3.25527743394033       -9.69677113614590
H            6.02401340864281       -2.25839214215958       -8.01610271162705
H            1.42563518468150        0.66209208002194       -2.66477167110526
H            2.90882527475894        1.43164123864838       -3.16999479889213
H            2.43105005028569        1.76123961365509       -0.68615128503158
H            3.98043203020940        1.01234831023760       -0.99644178257892
