42
 energy: -8.376756174009 gnorm: 0.000870685777 xtb: 6.5.0 (97a52f5)
C            0.95924189085227        0.00978553353016        0.16706374251927
C            0.19824902655175       -1.10043950394907        0.27034404627984
N           -1.17643845905228       -1.09494547502100        0.29603096516626
C           -2.04202041715954        0.11026126078401        0.24698898068156
C           -3.47829032360975       -0.36540766388518        0.52567534004311
C           -3.47195969597044       -1.88637226182577        0.26843540225595
C           -2.00248771092786       -2.32525562836017        0.39589510968054
C            2.39509613241060       -0.02155295873488        0.14363142953247
N            2.99271953929554       -1.19842064730693        0.20237991409166
C            4.33736058964489       -1.16550472859746        0.11821607457140
C            5.06246813953521       -2.37447137975036        0.17382020955725
C            6.42345005766407       -2.38958090982909        0.08193789245723
C            7.12779904631863       -1.19602761716271       -0.07178666086698
C            6.45881188865888       -0.00774063297193       -0.12948065388990
C            5.05370347431153        0.04781311074334       -0.03641969104368
N            4.43399418999425        1.24738187194749       -0.08572335566393
C            3.12453739476909        1.20795012400985        0.02612029291015
C            2.40280603021991        2.50486477026612        0.01400983019049
C            2.60523515611770        3.40697487189574       -1.02871557099092
C            1.95722128289992        4.62181300980907       -1.04413230876657
C            1.10097376738824        4.96316842223362       -0.01589531432147
C            0.90021370363936        4.08821522403727        1.03338364724124
C            1.54830186497108        2.87378306083423        1.05371122000165
H            0.46687693604880        0.95861014540647        0.07693533359888
H            0.68537643672340       -2.05458712051034        0.33692822180446
H           -1.95017539154513        0.56371730013831       -0.74435880055608
H           -1.69601545748789        0.84255230920340        0.98272282647605
H           -4.21184306530211        0.15759618822763       -0.10043539982025
H           -3.75160597941943       -0.15735983684477        1.56705243522818
H           -3.84698302294459       -2.10143283447632       -0.73904049127443
H           -4.12319863986083       -2.42757236752645        0.96591021562143
H           -1.70511763127182       -3.03073100408845       -0.38623740391740
H           -1.80212165756076       -2.79866888260817        1.36164693554075
H            4.51309713204475       -3.29218961915803        0.28956242498802
H            6.95736943352603       -3.32464361413271        0.12664654916597
H            8.20292337514389       -1.21470286808521       -0.14343600444524
H            6.99777389697153        0.91601835176077       -0.24596664675630
H            3.27649502378548        3.13703716874013       -1.82541584541520
H            2.11935178382000        5.30803408303899       -1.85920297636796
H            0.59432945971451        5.91433398661268       -0.02903316523095
H            0.23886280512141        4.35910450813936        1.84011246967681
H            1.41163799396815        2.20002225345832        1.88208878003760
