36
 energy: -6.199350788249 gnorm: 0.000369789741 xtb: 6.5.0 (97a52f5)
C            0.72391567498653        0.16529820485245       -0.07412387467922
C            2.23827414141226        0.01181527694670        0.07829633846070
C            2.71058531274016       -1.42590639147941       -0.26828248746527
C            2.66333324502214       -1.72940400581219       -1.77685980293550
C            3.35577572406649       -0.66454136690360       -2.69038696074284
O            2.86075925151849       -0.87562106234798       -4.03809373690723
C            4.86950923023661       -0.80170281996993       -2.68843848373474
C            5.69933166153694       -0.77218236457267       -1.61486914548127
C            7.07615970926290       -0.91410548254136       -1.93781874208110
C            7.31977684180223       -1.05427756721317       -3.27258911665632
C            8.61639818278961       -1.21118916158502       -3.89463201434326
C            9.82273503898687       -1.21272571433707       -3.25339876580555
C           10.93478393787490       -1.38478617015509       -4.12285212405457
C           10.58646689814906       -1.51476973389001       -5.42202154489926
S            8.87017308722694       -1.42827892369594       -5.61118355226653
S            5.80625969781212       -1.01321617450935       -4.13949951696265
C            2.92145413954292        0.77707009039068       -2.27637620924640
C            3.01410527431218        1.05580521665932       -0.76809135141598
H            0.18492162411654       -0.54086950114781        0.55890549594859
H            0.41501160873778       -0.01820521363527       -1.10252910330368
H            0.39584204085084        1.17117950275574        0.19132918845694
H            2.48607288641687        0.19632713098146        1.14042673302073
H            2.07717059686938       -2.14384705094546        0.26938633180559
H            3.71903507525304       -1.59968394805206        0.12085358451783
H            1.62378606330362       -1.82731695962293       -2.10397292963071
H            3.12412024844883       -2.70224634702566       -1.98156477135539
H            3.16782402120398       -1.74738989322343       -4.35774697732331
H            5.36128292164006       -0.63869323445825       -0.60078657987601
H            7.85704323838063       -0.90983026206543       -1.19335312933676
H            9.92422472907159       -1.09174998994371       -2.18618791785559
H           11.95741053009408       -1.40911562397352       -3.77453026262026
H           11.27067570969282       -1.65383166982487       -6.23785077178550
H            1.89783317202055        0.93620664764921       -2.62816117864694
H            3.53456906293451        1.48996202465808       -2.83915979385579
H            2.62376770102295        2.05850523859338       -0.54983428373419
H            4.06484172066254        1.08585729944430       -0.45948254321037
