51
 energy: -9.848936323490 gnorm: 0.000979012608 xtb: 6.5.0 (97a52f5)
C            1.53595183519641       -0.21998283213077       -0.63370292582206
C            1.54621584277751        0.04124922866589       -2.13814482904423
C            2.27059912473179       -0.78077303253775       -3.21749266255026
C            0.73974936020251       -0.72164147934008       -3.19837375883509
C            0.18666959082489       -2.19827055292752       -3.15192980104867
C           -1.33516499049548       -2.19972611429332       -3.23604294997752
C           -2.08922065925020       -1.46912233628131       -2.33176815361722
C           -3.46792941225719       -1.49110794171618       -2.38617003868765
C           -4.11013028602271       -2.24691281215968       -3.34558246991938
C           -3.37028132272375       -2.98120300398549       -4.24942979793307
C           -1.99214704325658       -2.95698821672760       -4.19105437075508
N            0.78406823491989       -2.83683068380244       -4.28648747515860
N            2.01895432429448       -2.88182644295843       -4.31160846624440
C            2.70623702384908       -2.29837886216308       -3.19883366781904
C            4.21873846828745       -2.42275604396562       -3.33908313258034
C            4.77519093841129       -3.29409211809214       -4.25993588871453
C            6.14360482016363       -3.43614877370931       -4.36197897437783
C            6.97448319435891       -2.70646557601126       -3.53716892018893
C            6.43265212806074       -1.83925604886354       -2.61070510624068
C            5.06336476821149       -1.70070403963871       -2.51114177640175
C            2.23204918424431       -3.02949890599736       -1.90148280220220
C            2.50094724536526       -4.58751240200846       -1.78652664342206
C            1.97846420857186       -5.28832275155075       -3.03102649336717
C            0.64721835116754       -5.22975703667450       -2.99799604928649
C            0.25107451280406       -4.48724495263749       -1.73150578334712
C            1.37951361358875       -5.00653380171151       -0.76120556228292
C            0.65137054254221       -2.95976844770131       -1.86735590036900
H            1.58342264275437       -1.26559053760462       -0.36018364544628
H            0.63037599989788        0.18541622686890       -0.17898930498245
H            2.38824765211009        0.26329327404929       -0.15247506899142
H            1.57987962827944        1.12427864203143       -2.31215895974810
H            2.77212080452477       -0.22551691033470       -4.01464792070151
H            0.26204286337891       -0.13167498535909       -3.98533132232624
H           -1.58673185267244       -0.88159611292141       -1.58247962452786
H           -4.04413813906834       -0.91880646273139       -1.67727401491117
H           -5.18700622312926       -2.26423583724071       -3.38895197149042
H           -3.86813615992945       -3.57304271574479       -5.00034119243601
H           -1.40796203624773       -3.52829893634931       -4.89066857973203
H            4.12057835673558       -3.86266494651539       -4.89661702998269
H            6.56251406443221       -4.11631859223415       -5.08576708955628
H            8.04409798566980       -2.81407220122630       -3.61561896972530
H            7.07973059517830       -1.26972902507272       -1.96363736794298
H            4.63791444879413       -1.02746025312312       -1.78666392448130
H            2.70236178221117       -2.54733936453584       -1.03745020700845
H            3.52747264480780       -4.86846741624692       -1.49918111598661
H            2.57520342720188       -5.72201488372890       -3.81546605434496
H           -0.02135679009414       -5.60782804410534       -3.75275940840648
H           -0.78114414886120       -4.67540731395067       -1.39343843014946
H            1.33585495793274       -6.08582261325070       -0.58192926774107
H            1.42692288513764       -4.45694278822297        0.18458335680387
H            0.26723101239524       -2.43204222154606       -0.98752848600589
