30
 energy: -5.874429227296 gnorm: 0.000373184202 xtb: 6.5.0 (97a52f5)
C            1.06776282808811        0.52418948214995        0.06997106734736
C            2.48281595312273        0.02588921830307        0.18075891675787
B            2.89602309516255       -0.89522596910170       -1.04684807065734
C            3.49244916992590       -0.27476158329505       -2.29535490918543
C            3.68057812883429        1.10055715132965       -2.46959695463381
C            4.23679772682999        1.58461723493208       -3.61837407745926
C            4.62474916632556        0.70785084422806       -4.63743635478604
C            4.44539498669454       -0.63665385363253       -4.49259007893135
C            3.87040161119704       -1.16229893216909       -3.31798011865574
N            3.66398032017719       -2.51109019060327       -3.17266087090788
C            3.07786120854212       -3.13867479492908       -2.10242347701998
C            2.88287723165565       -4.53455550613706       -2.09414825086777
C            2.27693764562016       -5.14576325484658       -1.03577590747834
C            1.83881605768885       -4.39095431495892        0.05788415252063
C            2.01944376863199       -3.03801002575536        0.07616803234561
C            2.64405284776436       -2.38963876073419       -0.99468086790018
H            0.78805723437908        1.15975168808828        0.91312058934131
H            0.36102966384407       -0.30667995808431        0.03161536721735
H            0.92679400348755        1.10385603627725       -0.84404484623893
H            2.64141479521009       -0.56285133376572        1.08721149613511
H            3.20460594236312        0.84487040844173        0.22200214138687
H            3.37549189373871        1.77957253137852       -1.69340492047308
H            4.37746295061685        2.64579892890013       -3.74422034526812
H            5.06306815391542        1.09944782679426       -5.54085521196856
H            4.73724242656115       -1.31299550145710       -5.27689009023512
H            3.95279799935354       -3.10294916181923       -3.94657535491679
H            3.21604732204189       -5.11159807123759       -2.93900240701789
H            2.13049118826472       -6.21355601476403       -1.04058265843382
H            1.35599068641341       -4.88197590124622        0.88705071372562
H            1.67144399354994       -2.46138822228626        0.91462329625938
