11
 energy: -1.515791029948 gnorm: 0.000537044362 xtb: 6.5.0 (97a52f5)
C            1.01575760784390       -0.02270063008698        0.06961425968127
C            2.53688682144321       -0.04600208504277        0.10294096275674
C            3.08224693313112       -0.85850785091974        1.26822108322369
H            0.63013923346798        0.56267517521836       -0.76899951701324
H            0.60689372020091        0.40880595836929        0.98596168083701
H            0.60677657718202       -1.03160317866002       -0.01952487956328
H            2.92448506894454        0.98194123326152        0.15160402352437
H            2.92430832099869       -0.44716005804329       -0.84478227728438
H            2.74297514319837       -0.45467421201805        2.22472190372878
H            4.17501177840720       -0.87142930166902        1.28677530445051
H            2.74303879518206       -1.89567505040931        1.22004745565853
