83
 energy: -14.439969236199 gnorm: 0.000186701587 xtb: 6.5.0 (97a52f5)
C            1.90716759929835        3.49525839279407        0.55398736849716
C            2.82278579664139        2.29907321463725        0.33619882909340
C            3.78587729283839        1.96865811358809        1.51415696469863
C            4.71678829633103        3.16954121166344        1.76203901951604
C            2.95600807798789        1.68481374168655        2.78049685624009
C            4.64557298516848        0.72982725818053        1.19891346881426
C            4.55089093028683        0.02731567745955        0.00252271011027
C            5.31081279595633       -1.09987589283812       -0.22813538431285
C            6.20138823156868       -1.57173914610230        0.73149743701866
C            6.97495683424602       -2.81756366495253        0.52399875757330
C            6.37890899940127       -3.93456322292075       -0.07247420249302
C            7.05760602363361       -5.12589632832971       -0.20393229874508
C            8.35476227886629       -5.21771138824816        0.28112864326743
C            8.96795708748517       -4.11380904607691        0.87945379408649
C            8.29195862252373       -2.91676314717256        0.97937417690964
C           10.37882652385240       -4.50459059351392        1.33709148913192
C           11.45577272870074       -3.64868210421370        0.62662818650847
C           11.44883485522001       -3.79116723681132       -0.88872138770807
O           12.46559101151293       -3.00815034896205       -1.51348762273725
C           12.49661616292934       -3.18952520691347       -2.91288255462973
C           10.52658825965879       -4.43364433276855        2.87977697437345
C           10.33357845959279       -3.05795511164806        3.50178060232963
O           10.58326413599807       -3.05968053791092        4.90717325930635
C           10.38783812600514       -1.78661145106855        5.48504852522822
C           10.47583232899224       -5.97047450620542        0.89821901067684
C           11.50698847426758       -6.87464583661463        1.04564935483622
C           11.36571373391792       -8.18314303985323        0.59226311324453
C           12.52520880021959       -9.17485877290707        0.79958287886402
C           13.76636269651165       -8.64668477999608        0.05792630482054
C           12.82401812133237       -9.27639280563453        2.30692528234695
C           12.16253561093080      -10.58740024166305        0.25429444121489
C           13.23503273922300      -11.65329762675436        0.42774934177462
C           10.16629364476076       -8.54559832037190       -0.02316787221991
C            9.12804125450868       -7.64918946864829       -0.17806998515942
C            9.28229467265137       -6.35446701573339        0.29069137451588
C            6.31068425922535       -0.85973692655888        1.92224378226113
C            5.54902612208749        0.26584467551850        2.14671666704374
H            1.26447537232117        3.67442879288243       -0.31126581691756
H            2.47247502243222        4.41210092204282        0.72586331482091
H            1.25000764113536        3.35088389074005        1.41263822703297
H            3.42625120407287        2.46335586542852       -0.56394485351166
H            2.21370728838703        1.41078622245529        0.13242663200172
H            4.15368888648619        4.05650318318876        2.04823908504314
H            5.29016467485693        3.40460978791559        0.86584170651805
H            5.42320177149389        2.96163670923065        2.56445091416631
H            2.37466535231835        2.55582251945382        3.07883302592138
H            3.59556887954896        1.42057156598283        3.62136780904490
H            2.26763807317939        0.85699825707155        2.61271111021465
H            3.87134651510460        0.35699271192052       -0.76276196963196
H            5.22036808509799       -1.62828975062838       -1.16172340499697
H            5.36075827670107       -3.86033385374175       -0.41352305159648
H            6.59429730577280       -5.98279187827547       -0.66059636120030
H            8.77915501976031       -2.05424396155828        1.39486743339935
H           12.44327483318023       -3.92390219664560        1.00820730610162
H           11.31831573262179       -2.59598905206483        0.88679583829066
H           10.47967778045359       -3.48675961662186       -1.29988089183073
H           11.60004594824705       -4.83802551246823       -1.17543148497091
H           13.28482977305962       -2.56537185175698       -3.33590246424014
H           11.53984206706828       -2.89918979987858       -3.34916144997634
H           12.70497841510494       -4.23382058971511       -3.15010568289217
H           11.51650317433545       -4.80946699694251        3.15459704311026
H            9.81636105030298       -5.13227056653188        3.33215087394760
H            9.30899722558938       -2.70439621414104        3.34902572624455
H           11.00351487824752       -2.32321085414964        3.04282932567512
H           10.59153203160674       -1.84524322595327        6.55497289740543
H            9.35674103934993       -1.46251112872095        5.33677467432782
H           11.06691083036747       -1.06224317443742        5.03301779966363
H           12.41692214383432       -6.55677285266384        1.52009861672416
H           14.03134486438964       -7.64589938488046        0.39630456536798
H           13.58254354654227       -8.59758088214745       -1.01497505667411
H           14.63195861577407       -9.28560444904668        0.22618198686559
H           13.05664264637697       -8.30034173001389        2.73033307466146
H           13.67761334483136       -9.92410545905614        2.50066332216356
H           11.96420779258808       -9.67582794381452        2.84415179096902
H           11.91671807797724      -10.49112131446666       -0.80958990841854
H           11.24140686418737      -10.91867790569938        0.74776048175595
H           14.16139285753812      -11.38215955518140       -0.08016553579026
H           12.91724751862751      -12.61549301482225        0.01910430542140
H           13.47493602856456      -11.81876812147122        1.47888480647103
H           10.03347971693408       -9.54819760659298       -0.38785599154277
H            8.20589015358567       -7.94147201134560       -0.64913188725813
H            6.98407944827582       -1.21418582247161        2.68369478458409
H            5.64973765738246        0.78987366536876        3.08125002710180
