98
 energy: -17.462501396916 gnorm: 0.000394092504 xtb: 6.5.0 (97a52f5)
C            0.78323264620291       -0.45328907998987        0.08544913521482
C            2.29890576834123       -0.35558008270115        0.01283039466927
C            2.91012172690669       -0.57111095773544       -1.39963640415892
C            2.54685051923777       -1.97014901332530       -1.93568898736503
C            2.34183158759755        0.47624929344410       -2.37704735796077
C            4.43930291424679       -0.45092327760168       -1.27944865445306
C            5.13702037504406        0.65630082702251       -1.76472892396180
C            6.50637997467729        0.76996191277904       -1.62879137837918
C            7.20411851946386       -0.24026752570978       -0.98503974083393
C            6.52294179514239       -1.34943260601241       -0.48574195138041
C            5.15403119046206       -1.45067406122531       -0.62574133564711
C            7.51933027792359       -2.30402323748977        0.18390934904825
C            7.47493117080033       -3.70444760965867       -0.48004550798518
C            7.69645239220050       -3.66976039688245       -1.98349142857351
C            7.18966028544025       -2.38085453251886        1.70034008727509
C            8.16636656095160       -3.18101160683811        2.54617159731245
C            8.86419858819685       -1.61195876072550       -0.07225956625728
C           10.15002524564421       -2.02509293239601        0.20274862633161
C           11.23360667798195       -1.21195732470934       -0.14053733796595
C           12.61813944637144       -1.64360625654494        0.15564357544432
C           13.01381523496062       -2.96969494686020       -0.06162687102819
C           14.29626380106041       -3.39221742228553        0.21320134520998
C           15.21191739285770       -2.47786903707226        0.71690437354300
C           14.83323262536372       -1.15247079584954        0.94208546558710
C           13.55081331670054       -0.73415079374057        0.66194603979240
C           16.02615962762477       -0.36870491747428        1.50365970904840
C           15.68533740486665        0.24030715484801        2.88837330265038
C           15.18784341797897       -0.78405629915181        3.89532898345433
C           16.42541009531725        0.72983598663340        0.48005544496615
C           17.68082368353702        1.51714458259508        0.81723487515017
C           17.10603289494463       -1.45130096215333        1.62690654247127
C           18.37555189195606       -1.39098867814278        2.16674612011633
C           19.18513169466312       -2.52438919716189        2.19122224779537
C           20.61066064374099       -2.50431122832737        2.77445463103936
C           20.71451256258186       -3.57313894834491        3.87871455310637
C           21.60861893443304       -2.82283989445209        1.64654151691423
C           20.94845259739550       -1.11026689728138        3.38148160005125
C           22.32987449001451       -0.98464500208337        4.00787974241796
C           18.67913852554414       -3.71136529274381        1.66101582458604
C           17.40263220201447       -3.79388676038882        1.14301379453648
C           16.60856074380636       -2.65784988837281        1.13258243984338
C           10.98830285206317        0.01345035036714       -0.77229373096988
C            9.70767928603589        0.42149953798103       -1.07456607478382
C            8.64110090043244       -0.39750715719554       -0.72819350730096
H            0.41551541442588       -0.30040891162866        1.10316369400873
H            0.42765292743692       -1.43209839179050       -0.24065190642468
H            0.30033964874614        0.29524273961951       -0.54485518452666
H            2.75004464268471       -1.08301672792265        0.69779137590945
H            2.62865994024061        0.62413007808512        0.37892339123112
H            1.48052621539293       -2.04801105308873       -2.14531260064988
H            2.80049397321316       -2.75180129238050       -1.22092865443679
H            3.08160421016978       -2.17546889606786       -2.86300530913610
H            1.27655125027584        0.32062950895263       -2.54411275673866
H            2.83510433204224        0.40946525842839       -3.34680086611031
H            2.46988626519375        1.48763141302934       -1.99220202959182
H            4.60085128518193        1.44782804375132       -2.25726161794705
H            7.03513076063114        1.62425920473550       -2.01430813325559
H            4.64779910246924       -2.30548913993933       -0.21686762352830
H            6.50837035746948       -4.16814540835411       -0.25127524070318
H            8.22883506967873       -4.34334919178183       -0.00755954405787
H            6.93845093915917       -3.06152731794309       -2.48058574203973
H            7.66061345664049       -4.66734270406207       -2.42753441128199
H            8.66698241976125       -3.23482039976403       -2.22963433615437
H            6.17921850582697       -2.79283683884038        1.80711776104187
H            7.12333685650887       -1.35492042921915        2.08194685163724
H            8.25931318653232       -4.20892716771899        2.19256736422100
H            7.85271562868405       -3.22769922408731        3.59196064549774
H            9.16262762241053       -2.73707456779321        2.53338804930912
H           10.32260964821040       -2.97545532716628        0.67312439251361
H           12.29667392875280       -3.66578796260295       -0.46174742723103
H           14.59359765031158       -4.41312164850563        0.04824811748377
H           13.26567886100257        0.28506277400315        0.84867917436030
H           14.93548692826253        1.02745307421825        2.74823532302564
H           16.57459447276732        0.74558336253321        3.28047268119853
H           14.28018385016922       -1.27696529575934        3.54198876090944
H           14.96072082203711       -0.33205977563815        4.86367390512343
H           15.93119377830050       -1.56565969605516        4.06338781553718
H           15.57533454905768        1.41308108848047        0.36729848752477
H           16.54059968618294        0.25056828386233       -0.49956699318534
H           17.60455887549201        2.00155871062563        1.79181510919492
H           17.87630662959480        2.30201751632050        0.08239371400922
H           18.56190543137208        0.87437460870034        0.83749805081333
H           18.71396222488819       -0.46305247008799        2.58644695389930
H           20.46426491005499       -4.56251289141189        3.49842060855774
H           20.03206188722033       -3.34849189626594        4.69816418133757
H           21.72430894547205       -3.63022222893793        4.28265019840683
H           21.37928842016155       -3.77871791890360        1.17701878164858
H           22.62904680231398       -2.88180327021611        2.02263686761544
H           21.57459373530512       -2.05531864159192        0.87350625912254
H           20.18649529320766       -0.87028343959439        4.13247454414376
H           20.84032109844916       -0.35722448913885        2.59218099760801
H           22.46432078633284       -1.68198489181454        4.83618362858708
H           22.50332313855289        0.01844443915743        4.40567644607618
H           23.12214356517063       -1.18121435934362        3.28394703525642
H           19.29842121179190       -4.59153881594474        1.66152486002982
H           17.01661612034246       -4.72167969923375        0.75806857152034
H           11.82532743071312        0.63311499531950       -1.04496009298412
H            9.52524082501205        1.35402101625203       -1.57956668695363
