114
 energy: -19.871930524371 gnorm: 0.000416318531 xtb: 6.5.0 (97a52f5)
C            0.93079393321120       -0.49953256836510        0.02211971643863
C            2.44459728296571       -0.38327424984856       -0.06048281655506
C            3.04595827352877       -0.54895597191008       -1.48381582258928
C            2.69244041095124       -1.93343867757571       -2.06108406526067
C            2.46000220349535        0.52371929765796       -2.42204049025101
C            4.57462473758052       -0.41994886356999       -1.37297239059106
C            5.26379570337689        0.69072726484742       -1.86143066367849
C            6.63368769755387        0.80789949264639       -1.73936061540786
C            7.34035784408331       -0.20221981839098       -1.10648253381546
C            6.66781716290402       -1.31449104797844       -0.60370650296378
C            5.29852540625807       -1.41983053867337       -0.73058448214741
C            7.67374045553681       -2.26700876150891        0.05222443426498
C            7.62087037817154       -3.66610212631610       -0.60753400527925
C            7.81596617398244       -3.63495416590004       -2.11644887956282
O            7.75660299656423       -4.93575908685298       -2.69967503143940
C            7.91923424673244       -4.90158035774330       -4.10102003759643
C            7.36860203158910       -2.34335747744749        1.57115386461866
C            8.38577989115532       -3.09995716115734        2.41259141807522
O            7.99968423081292       -3.17356126351940        3.78492893435192
C            8.97688523550884       -3.80538311555506        4.58346950958314
C            9.01339398278854       -1.57434370997165       -0.22254085420801
C           10.30258240650432       -1.98643080910425        0.03538190230528
C           11.37849419282223       -1.16584304196010       -0.31058306457177
C           12.76644002753799       -1.58888605400807       -0.01955879257652
C           13.19500317029070       -2.88716508399957       -0.32134270094691
C           14.48250170472026       -3.29868571197483       -0.05511473440981
C           15.36733587631689       -2.40211387554361        0.52856871587391
C           14.95257613759966       -1.10662235318208        0.84394845180367
C           13.66676402245392       -0.69767988745634        0.56880969890234
C           16.11175909171892       -0.34274990479592        1.49320174056922
C           15.73058211346694        0.12752480787269        2.91809530623776
C           15.28255829628536       -1.00581508180181        3.83008312789333
O           14.96494143735357       -0.55488240246033        5.14580158610469
C           14.58081225966522       -1.61452444585966        5.99516629921441
C           16.49581575499735        0.85128320339103        0.58129694662868
C           17.73403853860535        1.63232163474033        0.99651803779506
O           17.97083767133784        2.75317538457794        0.14469614670404
C           19.12769854833424        3.47267900722457        0.51296833513802
C           17.21866008888289       -1.40170492253864        1.54595128139782
C           18.47403161540425       -1.35096592114308        2.11717758774514
C           19.30888310022527       -2.46467092853153        2.08050331247072
C           20.71786060152797       -2.45487372987503        2.70142292958757
C           20.81616786194326       -3.59179046671190        3.73546396126332
C           21.75051705613507       -2.67766575974947        1.58223804549985
C           21.00907200379049       -1.09756091521950        3.40731879333334
C           22.36963980753258       -0.98602219041452        4.08001348626826
C           18.84259296060115       -3.62173487790682        1.45690843212485
C           17.58019232693558       -3.69533918240034        0.90490721588519
C           16.76007995992645       -2.57962930169139        0.95605247161122
C           11.12420770268159        0.06200976354817       -0.93251850643039
C            9.83995755014157        0.46686737607830       -1.22145994924553
C            8.77992682793785       -0.35683831937920       -0.86783651686236
H            0.57106355456393       -0.37992480775068        1.04663891487568
H            0.58319811140447       -1.47222148763250       -0.32859220639831
H            0.43477880034465        0.26125812185957       -0.58201079933549
H            2.90858055175972       -1.12601948179026        0.59851552873004
H            2.76705982146597        0.58824816349187        0.33228057693224
H            1.62462215028513       -2.01777404645916       -2.25876606281385
H            2.96658724273865       -2.73468432910982       -1.37663673938274
H            3.21689933655728       -2.10056814529582       -3.00154019030836
H            1.39393736475304        0.36691215699579       -2.58082838042474
H            2.94124124702872        0.48903276175120       -3.39917571997336
H            2.58764617972972        1.52334588522590       -2.00807781036362
H            4.72073592142569        1.48214285476669       -2.34609036873902
H            7.15596190326156        1.66451922549687       -2.12780499886608
H            4.79933273779122       -2.27856852049041       -0.32171634038646
H            6.66105366396109       -4.13755506190785       -0.37789921073725
H            8.38319938689230       -4.31052677388514       -0.16231381180458
H            8.78481703416059       -3.18981074579201       -2.36985065523960
H            7.04785521085512       -3.01302268281139       -2.58991705348792
H            7.85994951403350       -5.91846492539242       -4.49110792372306
H            8.89279577959477       -4.47912689069750       -4.35362031543618
H            7.12995024731112       -4.30010691454634       -4.55427005550334
H            6.38255701553445       -2.79580286855667        1.71093519548156
H            7.27712733537083       -1.32464723091625        1.95987531398752
H            9.36386483296228       -2.60969013329287        2.36791445208873
H            8.51749067294505       -4.12302449894604        2.04471946468279
H            8.62077414623641       -3.84900992612980        5.61350991063519
H            9.90768812981809       -3.23729267770718        4.55254304692910
H            9.15486039747636       -4.82005411197050        4.22463886076805
H           10.48437091526924       -2.93921916497448        0.49728028814882
H           12.49887490328085       -3.56856720812924       -0.77944986683776
H           14.80658497036700       -4.29796485598600       -0.28661883391266
H           13.35298690528622        0.29863572096579        0.82111284385939
H           14.93687845715374        0.87707475162580        2.85316804627224
H           16.58319078825204        0.63499912869197        3.37640239085328
H           16.06829995928243       -1.76558200894230        3.91062918617066
H           14.39931335976519       -1.50631065947370        3.41721586846070
H           14.34257860733160       -1.21255575047445        6.98073513081801
H           15.39772678661530       -2.33122179426748        6.09104218026545
H           13.69959673664025       -2.11575003030557        5.59236984894520
H           15.64591070098223        1.53759694046559        0.52421675481650
H           16.63701229915418        0.48037901778657       -0.43834820053442
H           18.62355591630548        0.99467790214992        0.96304497282942
H           17.63834724878703        2.00374619649198        2.02222479234301
H           19.25376118122056        4.31552741133288       -0.16781838415002
H           20.00521247500144        2.82791110428481        0.44768140653156
H           19.02495935510430        3.85007250811201        1.53132648260537
H           18.77930190974353       -0.44873248603410        2.61128505556333
H           20.59547151414543       -4.55811681003300        3.28485198813630
H           20.10924980561181       -3.43433478923399        4.54948015830851
H           21.81642795352904       -3.65616318637056        4.16073453446938
H           21.55409975861780       -3.60451569017099        1.04510739279057
H           22.76188902293545       -2.74054245632775        1.98068559041227
H           21.71879289488569       -1.86165641792963        0.86088378672656
H           20.22250248488610       -0.92259840363100        4.15056110900319
H           20.90619044255407       -0.29689768225425        2.66591939318480
H           22.49468302051956       -1.73124565548742        4.86654626696769
H           22.51085793706027       -0.00725192827276        4.54435770810836
H           23.18503677422991       -1.12162453244078        3.36855647547402
H           19.48131412027754       -4.48646199971779        1.41170107067934
H           17.22421509508180       -4.60197136109004        0.44803043968549
H           11.95744685152510        0.68645929296527       -1.20552681720619
H            9.64967956593957        1.40128888553867       -1.71932991533861
