86
 energy: -15.863306878128 gnorm: 0.000989171694 xtb: 6.5.0 (97a52f5)
C            1.31652036377696       -4.37242122391285        0.36076312657612
C            2.52973694640473       -3.73990932098956       -0.30011623583491
C            3.87020250114075       -4.44047434928251       -0.00077286705617
C            3.93169333666493       -5.90464098128031       -0.49744680538664
C            3.47677646275334       -6.93266739688827        0.52879972086590
C            5.03027073565759       -3.64249158714890       -0.60502071719447
O            6.29114189209705       -4.21623096661022       -0.28540988696148
C            7.36144456390809       -3.41526318288890       -0.55994110662549
C            8.66347374032576       -3.73536248849064       -0.11998236692874
C            9.51957439066700       -2.71001119697591       -0.49010387839722
C           10.91546578328735       -2.52259913260003       -0.31806066759703
C           11.85662127432203       -3.35577347488420        0.33854034986272
C           11.67337868703197       -4.53605422020393        1.03719676278900
C           12.92499442560161       -4.95799833370759        1.52703883299742
O           13.23366570558169       -6.07679845551510        2.23856544178760
C           12.14057781724631       -6.96826026272659        2.42028319509714
C           11.75332566814652       -7.73743252528857        1.14807604837322
C           12.89936041209733       -8.65069319910372        0.68025438138524
C           14.14768782048662       -7.89605189899944        0.25415441303926
C           10.44058527190551       -8.51579702525029        1.36762810629996
C            9.83058278802690       -9.07099894165990        0.08924660697485
C           13.90905664737954       -3.96962499455414        1.11698005487575
C           15.32247489512700       -4.01268369045317        1.46703230277064
C           16.26743809765196       -3.21028276615743        0.83151118499574
C           17.59570724038708       -3.25355836277036        1.18655871416640
C           18.01714650421654       -4.10555025731861        2.18667272907596
C           17.10200653899983       -4.91614884273790        2.82643664924842
C           15.77416969989290       -4.87143812497280        2.46914502721983
N           13.23251568374551       -3.05304216378792        0.41044826742994
B           13.82480670435935       -1.79425633060872       -0.27809688505883
F           14.63548922733563       -2.19649917356851       -1.32949427434325
F           14.50793033166924       -1.04084233484205        0.66380450586878
N           12.71495288327313       -0.90631071684861       -0.87854825850627
N           12.82861177971614        0.23481417525744       -1.49461690239440
N           11.61777869803750        0.58327047828697       -1.91254629144544
N           10.79458687737417       -0.35713299902077       -1.54842297077899
C           11.42853684676568       -1.35860195604698       -0.86917019610803
B            9.27302029854655       -0.45590037101616       -1.78358265613292
F            8.66815556515847        0.61668794876880       -1.14663670851701
F            9.03974207867600       -0.45904276234242       -3.14997204023097
N            8.73089664126481       -1.77031673608025       -1.17627010685764
C            7.45144446547430       -2.14373056964497       -1.26842538444024
C            6.41179974008646       -1.43802928483657       -2.03243088570136
C            5.90053566651366       -1.98095609787356       -3.21230118516497
C            4.92668778815432       -1.32033284268951       -3.92478532594084
C            4.44980749401991       -0.10297723498222       -3.48153759299640
C            4.95741899743101        0.45799676760154       -2.32664287265134
C            5.93089888611771       -0.19873241029821       -1.61003238429678
H            0.41497160993153       -3.77505247792326        0.20984809910401
H            1.46222141836406       -4.47681371430296        1.43661576988449
H            1.11120484403325       -5.36295058343739       -0.04511605164486
H            2.60858763523651       -2.68995321880181        0.00919376435235
H            2.38885426103911       -3.70442389426110       -1.38665637163912
H            4.02070373019518       -4.45364635882443        1.08994569184111
H            4.96888622967518       -6.12453865194909       -0.78425665372682
H            3.35555752569640       -5.99596789873429       -1.42576258679039
H            4.08528235776579       -6.87985507598379        1.43277588423861
H            3.55320954309346       -7.95146386161847        0.14402323723112
H            2.44197086319800       -6.77915967278108        0.83156855066239
H            5.01986147714330       -2.60905800002020       -0.24241316909865
H            4.93493218678785       -3.62219854821126       -1.69375971096120
H            8.91602462833858       -4.62504196208979        0.42335699652977
H           10.73718609830986       -5.03168422651792        1.20284453046988
H           11.29821017564043       -6.39709676929769        2.82433775412447
H           12.43574564635615       -7.67470936716822        3.20322274507000
H           11.57717211916816       -7.00069143373747        0.35044346852047
H           12.55248547036967       -9.27508225205933       -0.15131488998584
H           13.13853828729848       -9.35406765278661        1.48642281982289
H           13.92761663797551       -7.19412317820216       -0.55150064501848
H           14.93407036765632       -8.56716681747755       -0.09675571759470
H           14.55654066595314       -7.31586879705230        1.08163220199894
H            9.71559413538770       -7.85585381499073        1.86044782644120
H           10.62524700385124       -9.32409305505697        2.08468358930337
H            9.66165380549111       -8.27941909317773       -0.64223298776476
H            8.86965094948768       -9.55500635792632        0.27500918467663
H           10.47747499370155       -9.81268903453162       -0.37970808015072
H           15.94331973195934       -2.55319839883965        0.04765182886198
H           18.30836232432383       -2.62087891691342        0.68312672184967
H           19.05718854051064       -4.13863413223535        2.46697386797414
H           17.42759986640384       -5.58472320177030        3.60653871237290
H           15.06233246971878       -5.50539004022154        2.96617796489154
H            6.28895870393942       -2.92152087134124       -3.56340623677591
H            4.53794322787845       -1.75268265016899       -4.83220058611386
H            3.68654968900894        0.41238253817654       -4.04103987368688
H            4.59386003802389        1.41444957299323       -1.98832596876284
H            6.34543387658751        0.24200368707617       -0.71968064861389
