80
 energy: -14.417310600088 gnorm: 0.011634415445 xtb: 6.5.0 (97a52f5)
C            3.29821038358564        1.50631347523516       -2.82547969991114
C            3.30590229893827        2.76458023048017       -1.96845292771261
C            4.67755157876954        3.48277983573991       -1.89241927142001
C            4.89167554279910        4.52041372026203       -3.00516957440525
C            4.95800104016744        3.94812619736501       -4.41065019858874
C            4.87332839322372        4.15645138449612       -0.52896935073446
O            6.16216140238617        4.77204697186073       -0.42299602920254
C            7.19771616944863        3.88626775147221       -0.16916686711797
C            8.35453689285028        3.77735143080891       -0.96106327524928
C            9.14475742584248        2.75939073014330       -0.44159921781629
C           10.41972624802064        2.28037087501956       -0.83531465424847
C           11.25115180125169        2.71797672795168       -1.89619515844560
C           11.01353926199584        3.63332851187314       -2.91315153665480
C           12.16317769708680        3.70869005745751       -3.71665540663192
O           12.40963376991166        4.49736289669576       -4.80131570301736
C           11.31431975263742        5.32486252413080       -5.17337349815680
C           11.15752296492281        6.57184458842402       -4.29121532001224
C           12.36790588511108        7.50825835818551       -4.44299729274028
C           13.66942540218665        6.90742776695367       -3.93906030474982
C            9.82632154545971        7.28562150181663       -4.59893465137501
C            9.44954957206199        8.35702126425740       -3.58497061796234
C           13.13182067606924        2.77050397530862       -3.17558953000788
C           14.43979299235902        2.54555612254378       -3.72629306711188
C           14.86388058691918        3.02808714910270       -4.93499738859704
C           16.18476265346403        2.64909774199870       -5.28629701029700
C           16.78502742114303        1.87425344455318       -4.35567776506980
S           15.74666857579057        1.65187753932012       -2.99537829032229
N           12.53987808175002        2.20094009821778       -2.11384500360910
B           13.14996459307362        1.09132390494186       -1.21770693393761
F           14.27878680054364        1.58522784784505       -0.58773867714863
F           13.42571074900338       -0.02121675089556       -1.99723548106923
N           12.15692183959535        0.65107831806565       -0.12005972458105
N           12.31577589931778       -0.22827565072537        0.82616285076946
N           11.22176130254207       -0.20543765911247        1.57671367962833
N           10.41079255848112        0.67152541716326        1.05863705096999
C           10.94053940280951        1.26413971908077       -0.04978456833368
B            9.04477622747982        1.14959656025633        1.58903437129996
F            8.17754517707504        0.06882444949526        1.58624058797009
F            9.24854158133344        1.66875397743495        2.85909617236942
N            8.46440378041497        2.25976222980425        0.68104032919273
C            7.30991984977234        2.90436780697951        0.90256410088712
C            6.43931388155416        2.78688167513690        2.04391807472890
C            5.62270042660389        3.78241380471966        2.50888561116117
C            4.83689348065196        3.41095852839136        3.62756833353574
C            5.05149124009114        2.14079351344409        4.03803139559166
S            6.24576424479760        1.37583360477505        3.05596987021272
H            2.32510178120129        1.00778735796344       -2.80952337719664
H            4.03946320030497        0.79168167054822       -2.46643599409632
H            3.52774233759946        1.71029491654097       -3.86908154949852
H            3.00077188982421        2.50112255073653       -0.94878145618242
H            2.54308559839239        3.47150642321484       -2.31375252201546
H            5.46681458850240        2.71720946120166       -1.98688207513639
H            5.81659749226076        5.06951023334718       -2.78292316681319
H            4.09862788304514        5.27884789129329       -2.94467568593831
H            5.69708052554258        3.14373150261466       -4.47709887648305
H            5.23335660851772        4.71090799420409       -5.14714919799372
H            3.99824711479912        3.53928761739142       -4.72567960997950
H            4.75270640995901        3.43114758535928        0.28360110326511
H            4.12263809316195        4.94260775606692       -0.37930216930999
H            8.55592040946950        4.38706046848373       -1.81989764647035
H           10.10768145667391        4.18383376334081       -3.07235439606498
H           10.40746283977708        4.71059246934652       -5.17651491077420
H           11.48183661307255        5.62490143446559       -6.21335510379801
H           11.12823458770726        6.23987475580257       -3.24299698361981
H           12.17270118762788        8.44877507421337       -3.91430281133036
H           12.46380126566868        7.78665848995158       -5.49937903376113
H           13.60573662557420        6.66432039925818       -2.87730608079872
H           14.51410591769628        7.58552840500561       -4.07434379381888
H           13.90456287192431        5.98275625069063       -4.46705842554453
H            9.02684804055462        6.53562068430071       -4.65103812641106
H            9.88110117216353        7.71566246198283       -5.60602652322444
H            9.41186747662498        7.94749068378757       -2.57394580099008
H            8.47067253221882        8.79012499182160       -3.79772620738829
H           10.16703833621028        9.17867444616785       -3.57611747613330
H           14.23164115080644        3.63632555695993       -5.56007934922997
H           16.66395548627896        2.95502390739048       -6.20535630444416
H           17.77860387804058        1.47041356080519       -4.40333204702952
H            5.59079887858027        4.76733683783913        2.06752675016972
H            4.15000328990149        4.08885957582139        4.11171193147357
H            4.56669340902425        1.67833865373380        4.87629848459262
