118
 energy: -23.900006312384 gnorm: 0.000554098088 xtb: 6.5.0 (97a52f5)
C            1.56896362868157       -0.74451563299112        0.44646684689218
C            2.62387235022137        0.20830643403049       -0.09043578457581
C            3.05888441132821       -0.02887160856083       -1.56302725915439
C            1.88121050489004        0.18672300213628       -2.54787442259739
C            2.27994026562743        0.05161268897809       -4.00860024757354
C            3.69138064461115       -1.41251288639512       -1.75287098961175
C            3.13103201338808       -2.66869343619747       -1.67790640329241
C            3.92538454897675       -3.80011248020491       -1.88454590044006
C            3.34100273028985       -5.15599551121446       -1.75512526859723
C            2.19515762547688       -5.48835271345273       -2.47681256436111
C            1.63888245840112       -6.74243892556087       -2.39634153985631
C            2.20623949720931       -7.72448807882913       -1.58501079242444
C            1.61115299934700       -9.07798847092978       -1.49218477506122
C            1.10887041778255       -9.71956577346063       -2.62373786092287
C            0.55972603784393      -10.98085347144798       -2.53532451409853
C            0.50037552199548      -11.62661970334754       -1.31644145359527
C            0.99157539416043      -11.00696671249735       -0.18465356729752
C            1.54152002382480       -9.74593493106139       -0.26999574472164
C            3.34360747892767       -7.39663818219153       -0.85580795570867
C            3.92009761869228       -6.13343548901893       -0.91494232656036
C            5.10789915662529       -5.83419413843346       -0.07731593241183
C            6.24745341185336       -6.63368629330732       -0.14709813809241
C            7.35422039920883       -6.35016224146406        0.62369493203914
C            7.34353346606805       -5.26671930518872        1.47989606400723
C            6.22072969593689       -4.46778232064712        1.56671434902748
C            5.11218576443689       -4.74949701746889        0.79861947581434
C            5.27936631686584       -3.63044613716597       -2.20082669312121
C            5.84079518908397       -2.37822732891050       -2.30407827462611
C            5.04326501574364       -1.26358342226550       -2.07881300787781
C            5.37132090405902        0.16109564654788       -2.16323245377282
C            6.58044634479755        0.77708860973398       -2.47092490982573
C            6.61518143216703        2.15624627979441       -2.50574369679685
C            5.46913836507232        2.91104842160990       -2.20511009757757
C            4.25951338527591        2.29473951958024       -1.89797040310196
C            4.22195029133399        0.91604539712464       -1.88711271568767
C            5.80909235198413        4.33572081705056       -2.22328198977401
C            5.02803587299693        5.45043671902615       -1.94533433353471
C            5.60685487864479        6.69862192799430       -1.99643381138515
C            6.95970493304745        6.86418757005955       -2.32131083453098
C            7.56974196350717        8.21540967696098       -2.35693631732033
C            8.15795718450555        8.67705776231204       -3.53366479650985
C            8.70293435307778        9.93584309407677       -3.61249425016815
C            8.68504953212772       10.79153691170915       -2.51158958751982
C            9.26612510983489       12.15174362137747       -2.59443787847589
C            9.07714086489689       12.94242325661627       -3.72734288384963
C            9.61782312474307       14.20806223713431       -3.80339224329008
C           10.35783212736942       14.70946457560890       -2.75114333421325
C           10.55572173073766       13.94129842087339       -1.62103164438627
C           10.01571806672280       12.67551753377437       -1.54173357179961
C            8.11157013609218       10.33193906795719       -1.33113378448166
C            7.55974649979468        9.06060635736658       -1.22500471437320
C            6.99952931333272        8.61030589858293        0.07294954601353
C            6.05010516020425        9.37863699709672        0.74439296551803
C            5.52891954653819        8.95865970322456        1.94922016812015
C            5.94686118503103        7.76685097716493        2.50772722764571
C            6.89085973676625        6.99561578495151        1.85936454075635
C            7.41455877648107        7.41353995161788        0.65556736350831
C            7.73329349246563        5.73478707508217       -2.60211849316694
C            7.16050452122399        4.48422971285779       -2.54540173573473
C            7.78644706049750        3.10571886718210       -2.78281360099531
C            8.95193920584895        2.85579013819348       -1.79104518907782
C            8.55415333336567        3.02886898232200       -0.33374453639418
C            8.26256749998269        3.02309161382819       -4.25892525665833
C            8.80618966758054        1.67454907002404       -4.70058029883586
H            1.27429077489557       -0.48957113261358        1.46721026597314
H            1.93434466895303       -1.77163485592479        0.47051022383157
H            0.66445530153839       -0.73033992012073       -0.16285151305125
H            3.52198206278996        0.15764627189105        0.53682616008270
H            2.27078601014864        1.24258614035729       -0.00377503247789
H            1.45054188638456        1.17763857280687       -2.36427414187833
H            1.08729554068670       -0.52986839234604       -2.31204785255925
H            3.05154976076850        0.77562469096711       -4.27634120771424
H            1.43398903087539        0.20874320330259       -4.68155840388227
H            2.68584058833797       -0.93992241084593       -4.21664647604984
H            2.08472109354549       -2.78473948278918       -1.46346219139263
H            1.75177170791312       -4.74323023957961       -3.11505800101671
H            0.74874368804659       -6.97444469638219       -2.95544522847008
H            1.16544320927835       -9.22224968649711       -3.57675041181627
H            0.17805866424840      -11.46447273207639       -3.42000209244004
H            0.07148374746104      -12.61333855621002       -1.24873385875627
H            0.94372108445421      -11.50937940149477        0.76797128313930
H            1.91344072791511       -9.25955399802267        0.61543427757925
H            3.79228263176236       -8.14096698903349       -0.22307321362319
H            6.25566699257849       -7.47292741732752       -0.82146071554259
H            8.23067712154483       -6.97414133563611        0.55635722023475
H            8.21094084283714       -5.04507953557458        2.08036283956348
H            6.21159413688195       -3.62147059706262        2.23432652023990
H            4.23627031018722       -4.12671465157100        0.86077612634036
H            5.88447045874926       -4.50550412804758       -2.36424547542941
H            6.87953024296932       -2.25318972269291       -2.55486146197457
H            7.46284000606439        0.19187226744052       -2.64962889270162
H            3.38606367876270        2.87534644507497       -1.66624057031608
H            3.99067395722489        5.32781631375201       -1.68789422728649
H            5.01861295105006        7.57354955904066       -1.77923897621847
H            8.16903665370209        8.02996086673307       -4.39411382916499
H            9.15801615119929       10.27016801171028       -4.52896267562483
H            8.49038149338063       12.55672839977323       -4.54334475634732
H            9.46083897146968       14.80769457316827       -4.68542908374830
H           10.78047706425526       15.69933329096123       -2.81185352319464
H           11.13553182484464       14.33117859594923       -0.80005468440112
H           10.18075616416515       12.07310877129836       -0.66493120649265
H            8.09502063746793       10.97747658346166       -0.47168489962822
H            5.72082515863014       10.30405943358903        0.30362676110748
H            4.79263387346735        9.56122241675328        2.45602761980315
H            5.53758443151280        7.43951255637055        3.44976649420572
H            7.21825656585791        6.06536390923265        2.29461504052958
H            8.15026136054606        6.81441391721442        0.14709772548542
H            8.77501987277580        5.84289554378348       -2.84315929112259
H            9.77401077230532        3.53610559393539       -2.04089333253170
H            9.34322778121006        1.84572127464221       -1.95215131065716
H            8.18621951358766        4.03834552880604       -0.14216908077552
H            9.39089846075036        2.84951458031109        0.34509807200636
H            7.75370038876395        2.33981966751127       -0.05844870198649
H            9.02144072452197        3.79890760309298       -4.41369997755048
H            7.42103156777131        3.31156199428933       -4.89986357135593
H            9.64278412213557        1.35333197774938       -4.07860751522441
H            9.16409689191911        1.70105126394601       -5.73258904765947
H            8.04110413529124        0.89908195358228       -4.64961289759232
