125
 energy: -22.990420357598 gnorm: 0.000410020308 xtb: 6.5.0 (97a52f5)
C            0.50625610138894        0.83838240817257       -0.57583733506879
C            1.80822683279706        0.30233147466809       -0.00391536310431
C            2.82428729712275        1.41188122125142        0.37519522690082
C            4.12108554838329        0.78209607456635        0.94890839173852
C            5.17335135384516        1.80601467296104        1.34165001384270
C            3.13756782607402        2.30168721879025       -0.83079629721056
C            3.70071552779961        1.98184828418685       -2.04594660984724
C            3.91845283070069        2.98446572178246       -2.99493601368724
C            4.51330898604256        2.64943178323409       -4.30959137617456
C            5.60275058459346        3.37355111427936       -4.80963120720172
C            6.17519916875445        3.06211987322978       -6.02394805240969
C            5.65093665660030        2.01092603935817       -6.76521641825324
C            4.55576409644714        1.28837329104152       -6.28634675982498
C            3.99349079055394        1.59678308987520       -5.06736009141005
C            4.17018355491765        0.20748552203066       -7.30359572434292
C            2.71790819414534        0.41957822274133       -7.80478251459165
C            2.47109203595681        1.80544991461829       -8.37922493335749
C            4.34837803547543       -1.18667719651852       -6.64169107355989
C            4.11282481496270       -2.38264312962425       -7.54968790205597
C            5.18104455088822        0.43992892921795       -8.43370766953742
C            5.30208737551671       -0.17164022909303       -9.66573381679381
C            6.30371796649374        0.22081594635509      -10.54983603900999
C            6.48788127724314       -0.44980932051774      -11.92082567141424
C            6.33526383104386        0.60587775447315      -13.03175278540852
C            7.89082283726395       -1.08142938218880      -11.99415299489127
C            5.44434561956631       -1.55925548563123      -12.15953149056865
C            7.16201772408591        1.25135906358041      -10.16810869026387
C            7.03661250710813        1.89024403010303       -8.95125570587748
C            6.03750559526832        1.48406657412204       -8.08013777066625
C            3.55808293356573        4.30236233318774       -2.68655017047565
C            2.98295109263506        4.62543855673801       -1.47680100449478
C            2.76816177565707        3.61897388374271       -0.54342316947029
C            2.18292018522708        3.67542956761995        0.80079785969162
C            1.63639991940929        4.74335445207118        1.50104175290722
C            1.12906753988657        4.52363166932335        2.76289345035249
C            1.15980960466816        3.25344570822856        3.35283804458839
C            0.61315393371295        3.04447604672234        4.71363610760734
C            1.35624344004186        2.36070418146263        5.68414128752533
C            0.87082266131789        2.17241076309814        6.96003304384831
C           -0.38558786067402        2.66924371130101        7.28183850473914
C           -1.14527789377332        3.34050318732529        6.32099702622486
C           -0.65200355309959        3.53383509920349        5.04931704581594
C           -2.48585844939246        3.76519425948989        6.93325535707339
C           -3.66900433602009        3.11944766715804        6.16636418487679
C           -3.58073583141523        1.60409042506446        6.08100729547941
C           -2.57210225904576        5.31624884067570        6.91703822121139
C           -3.80033257126312        5.91546005143256        7.58221194086852
C           -2.38905161543386        3.21166057165113        8.36060875463500
C           -3.31835560123494        3.20345611172822        9.38183858970884
C           -3.01127299666578        2.61695494351900       10.60684206777801
C           -4.01021428459136        2.60214145016517       11.77528059708577
C           -4.31757538157489        1.14470164744552       12.16692771813247
C           -3.39860222167382        3.34484885169777       12.97807059548166
C           -5.33655876411322        3.29402556908672       11.40251028660807
C           -1.75736539208072        2.02835623070375       10.76714077280402
C           -0.82847319061590        2.00447978815735        9.74674601595851
C           -1.14797935224614        2.59673723828407        8.53462512981870
C            1.71049337557781        2.18677187815580        2.63721124095008
C            2.20996898992679        2.39921999690916        1.37134077374300
H           -0.19184803122580        0.03719140509518       -0.82938619029131
H            0.68293108289853        1.41968852331382       -1.48275117498043
H            0.00508549810164        1.49827469392014        0.13475702275355
H            2.28479831417624       -0.37564820716444       -0.72142026647856
H            1.60782708360145       -0.30473505622861        0.88652909384166
H            4.52919732652048        0.08798552700284        0.20509988753375
H            3.85440980440658        0.16394846834619        1.81396129539139
H            5.47188095606290        2.41370481541084        0.48535839636255
H            6.07493428227915        1.33627588650725        1.74172475118754
H            4.79377376792332        2.49024245563568        2.10280352086984
H            3.98106951400581        0.96655088886420       -2.25993753361259
H            6.00151071832056        4.18085473815234       -4.21949496928121
H            7.01383500825469        3.61941537327431       -6.40327669913637
H            3.15033509427573        1.03737998145879       -4.70498601042184
H            2.03055246119545        0.22755861156198       -6.97285458197736
H            2.48973711991543       -0.34078880708822       -8.55936230177269
H            2.66114885105862        2.58148786914071       -7.63544608042045
H            1.44308783825802        1.92912811934378       -8.72761906115247
H            3.13118690214000        2.00526021259497       -9.22537063727486
H            3.67625150865527       -1.23846162969295       -5.77699195042746
H            5.36042756566949       -1.23284306765708       -6.22212411855098
H            3.11742578392277       -2.36198169601950       -7.99571224842885
H            4.20185173429678       -3.32679558222806       -7.00681289010039
H            4.83790421041466       -2.41578522337802       -8.36369481112446
H            4.59963693224572       -0.93591430721721       -9.93859321870130
H            7.08886081297902        1.38738892091145      -12.94297040734108
H            5.35452104193833        1.07858503527528      -12.98152947192296
H            6.44129042238197        0.15253594201704      -14.01723944399690
H            8.67091417404007       -0.32880225101889      -11.88648079160796
H            8.04291881720552       -1.58385160361579      -12.94931410333652
H            8.02354028393860       -1.81725789987223      -11.20118368169620
H            4.43155112341083       -1.15736603173511      -12.13769757926975
H            5.52357462264090       -2.34165486692768      -11.40499577801867
H            5.59211063175984       -2.02557670392416      -13.13357757915040
H            7.93947815884827        1.56200338974887      -10.84443506143799
H            7.69543867607737        2.69456724113832       -8.67396396593047
H            3.72534352658890        5.06960516305599       -3.42298826514852
H            2.70119392055235        5.63820141230962       -1.24716760765314
H            1.61169739680429        5.72160376929303        1.05360389138258
H            0.70649383794821        5.34186862409866        3.32053131765526
H            2.33184530891927        1.98895094361283        5.42131417609197
H            1.44694326773806        1.64936116883150        7.70318519117707
H           -1.24290540002570        4.04958464013792        4.31450101112132
H           -3.71083435339792        3.55300626772841        5.16054214084492
H           -4.60621658404698        3.40942889658356        6.65338196701642
H           -2.66752224479857        1.28949754168851        5.57253262433588
H           -4.42460856825717        1.17277551001655        5.53757282934416
H           -3.56478824209309        1.15310895079482        7.07499983217752
H           -2.51620301431983        5.64709020158722        5.87325483327356
H           -1.66456977669891        5.70802111647008        7.39167499438252
H           -4.72381635913275        5.54272349415855        7.13672358056846
H           -3.81776347332865        7.00445773650003        7.49360121121212
H           -3.83161270868708        5.68385142003094        8.64746001507795
H           -4.28628434589711        3.63349846874859        9.20809885812776
H           -3.41921669987702        0.62433169046894       12.49664192566591
H           -4.73008426748708        0.59725787614189       11.31962048727945
H           -5.04252032848671        1.10421640029822       12.97978035802952
H           -2.48212454350803        2.86365026086673       13.31729935364073
H           -4.09343652803433        3.36629399084209       13.81750541368306
H           -3.15813882142668        4.37430224025380       12.71300387733302
H           -5.82172341235197        2.78943678051086       10.56718507858557
H           -5.17258037047850        4.33648880016381       11.13028077497747
H           -6.02992517532199        3.27885577197704       12.24338826693704
H           -1.51053755687734        1.57224308958932       11.71021182389497
H            0.12958104743823        1.53208858012603        9.87667705823898
H            1.73030095823246        1.20163586573555        3.06636897361123
