102
 energy: -19.447177928366 gnorm: 0.000801003037 xtb: 6.5.0 (97a52f5)
C            0.76061695617613        0.74610377725014        0.75337952958350
C            1.95684160060421        0.20212564627954       -0.01164622801536
C            2.92004960600743        1.31311172715058       -0.51828080133169
C            4.08981181625240        0.75428668099293       -1.37811095215014
C            4.97294014051917        1.83997578671227       -1.97271821678645
C            2.12388491941354        2.29835589967530       -1.36495141918716
C            1.44097321057997        2.06660828071239       -2.53832346655984
C            0.78620869713012        3.11279965191946       -3.18709875582405
C            0.06053577392079        2.85860903620135       -4.42819451750989
C           -0.58757601459053        3.77798452856080       -5.20446371414916
C           -1.20624410580114        3.22292082443562       -6.35815974049577
C           -1.03604957417140        1.88588414171768       -6.46925930013336
S           -0.10347456512096        1.27285647426742       -5.15067041050230
C            0.85398386112547        4.38812070350725       -2.61673749505727
C            1.53824654033454        4.61831326731437       -1.44305928409310
C            2.17935302570908        3.56787643065604       -0.79038116487703
C            2.97338547659314        3.49180461230755        0.45756812692253
C            3.43652253149688        2.17625168485096        0.63715169649166
C            4.20575620563399        1.84087232202712        1.76152988968463
C            4.50748208140507        2.83516737083511        2.70727381599227
C            4.05917204151871        4.15077058918811        2.53352099404128
C            3.27654573850570        4.46889522729966        1.41398206531691
C            2.83702327746381        5.93342858134706        1.50713707750162
C            1.29040485212537        6.04087699673169        1.62865641729875
C            0.72272914386947        5.23191002903269        2.78463165707602
C            3.45312157491608        6.73458146836202        0.31725469958268
C            2.83785369819207        8.09783520679303        0.04696462169194
C            3.47241243025607        6.40201965313378        2.81392864569324
C            3.38564812552886        7.63325873965872        3.42808822969139
C            4.06857179230659        7.86941779596121        4.62231783996544
C            4.00494047232999        9.16115266927557        5.29990543357526
C            3.29646335532175       10.26020144135507        4.90269246228605
C            3.43296253665421       11.37755664740881        5.77151086185419
C            4.24046305727526       11.14034287518955        6.82993114991677
S            4.85632329558208        9.52725250545734        6.78462542970197
C            4.83035733912908        6.83117043929548        5.16333407057079
C            4.90416467355199        5.59550368807854        4.56110234629088
C            4.20892139391091        5.35754999931667        3.37824311532325
C            5.28039551703929        2.21091432859912        3.87167241850019
C            4.46780636340290        2.31348845258660        5.19408417538276
C            3.07126606377636        1.72095784695430        5.08655589562404
C            6.71141005119602        2.83220150982032        3.93788065958116
C            7.47029353943089        2.61166081488562        5.23639463853177
C            5.38432054447670        0.74462006125073        3.46716410467078
C            5.95174320956307       -0.30353715755180        4.15842073978410
C            5.95285302406289       -1.58776746718554        3.61674105374788
C            6.56558961423872       -2.68836386507091        4.35488836766203
C            6.71855389744429       -3.97830346255571        3.92986201954685
C            7.35848548872298       -4.82364890817845        4.87712979295052
C            7.69435807855325       -4.18960630814146        6.02367575409902
S            7.23162017347579       -2.52609906443929        5.96549897555321
C            5.35725796804632       -1.77519159378836        2.36633580533555
C            4.77447687728904       -0.73101652544664        1.68238026754847
C            4.77165143900093        0.55148500975476        2.22634826200204
H            0.09899630596914       -0.04983691706191        1.10239628188973
H            0.16606420915966        1.41868019725894        0.13251450971894
H            1.07940861534091        1.31610718185635        1.62805654110830
H            1.61809808161539       -0.38390560909208       -0.87350836120747
H            2.49956031293174       -0.50025420929009        0.62289292176202
H            3.66797779345674        0.13283745603972       -2.17606159687562
H            4.70518534265143        0.08178502315572       -0.77881606850039
H            4.40095477158128        2.50386049064953       -2.62317046575724
H            5.79144100505403        1.42564114302066       -2.56548911379616
H            5.41432604613910        2.46016817137324       -1.19048561259215
H            1.41349855177966        1.07851876709058       -2.95827400009976
H           -0.62912666511007        4.83001224992147       -4.96993920871825
H           -1.75844367912551        3.81440035766487       -7.07453757885298
H           -1.42117444213605        1.27255413932951       -7.26220496372840
H            0.36025998553470        5.20767244011936       -3.10815159931766
H            1.57995440440563        5.61614022718756       -1.05331943814418
H            0.81953181048249        5.71950543927524        0.69768680887576
H            1.02057996427234        7.09577151878813        1.74730086068331
H            0.95437973220962        4.17102660711325        2.67390238627433
H           -0.36306125979703        5.32530877485603        2.85829726223900
H            1.14559228841696        5.55356129270247        3.73796381440865
H            3.41610116595869        6.11978853487330       -0.58733138722599
H            4.52629976332650        6.84389985734899        0.51658023783637
H            1.77768651437500        8.01865275523532       -0.19878141056013
H            3.32427722467724        8.60204594307453       -0.79132072863158
H            2.92405185768300        8.75784801059619        0.91002422095583
H            2.77830879982510        8.40414300649818        2.99481653229202
H            2.68824424525002       10.28554209119706        4.01229332599124
H            2.94015805513404       12.32365681933616        5.59857439525901
H            4.47895609760734       11.84694329956400        7.60262108221823
H            5.36628770823842        7.01295048936705        6.07839647152051
H            5.51191681337400        4.83368759775415        5.00776917474901
H            4.39419926782958        3.35651784736376        5.50743446149707
H            5.02536909188116        1.80540193561587        5.98822537456017
H            2.48631221722574        2.22892909649617        4.31762748314573
H            2.51781042140902        1.79800845716840        6.02505477344448
H            3.10960109003014        0.66498087490419        4.81351032352727
H            6.64893090692029        3.90207536728761        3.71615527357361
H            7.28594192076096        2.42343691951343        3.09758522668461
H            6.94414093061628        3.04502847170924        6.08837702256699
H            8.46285240956718        3.06723645454008        5.20746190822857
H            7.61203537580753        1.55158474021962        5.44602071342012
H            6.38226623504767       -0.14281524514607        5.12809807601906
H            6.38886119149046       -4.32856285464434        2.96442328733970
H            7.55615032513508       -5.87055917786442        4.69550804387892
H            8.18350006443824       -4.64249526909733        6.86564250238027
H            5.34772887893492       -2.76017704714331        1.93422182447379
H            4.32887942125863       -0.92673078948665        0.72872077160858
