107
 energy: -22.063873789142 gnorm: 0.000709542649 xtb: 6.5.0 (97a52f5)
C            0.91756997195115        0.47163156241192       -0.66361861649815
C            2.21458249577759        0.06381053382865        0.01519654767300
C            3.09193618870968        1.26648494197008        0.45215934440006
C            4.39677455309022        0.76656041793590        1.12651377030083
C            5.30963505038744        1.88894620013012        1.59255873372202
C            3.40691428054263        2.17513965461045       -0.73885511364705
C            4.06400589120622        1.89753453108217       -1.91494030328406
C            4.23111373628738        2.90220008576249       -2.87769449983972
C            4.91200848334589        2.58175753362530       -4.11889442558952
C            5.28165871132574        3.46954498258166       -5.05997808330400
C            5.93807033688650        3.13843383269668       -6.31116938085101
C            6.45217358246601        4.16183847844778       -7.11532428905876
C            7.07035354287852        3.88276873933391       -8.30869288376558
C            7.19715255948653        2.56857053762746       -8.75952523209768
N            7.82991657336187        2.27695163118763      -10.00957937633452
C            8.92155151392822        3.08589341779156      -10.47695748592576
C            9.05948213343406        3.38207064904082      -11.83119850491055
C           10.11210821903610        4.14822463953210      -12.27989113506903
C           11.04694734013025        4.63292904507577      -11.38552404145297
C           10.92472814678860        4.34800492866502      -10.03924810826366
C            9.87309419992068        3.58179137482655       -9.58839658661629
C            7.37290681824258        1.17277127965950      -10.80809284744017
C            8.27718812413458        0.37577956575242      -11.50655190232398
C            7.83697084752939       -0.67804445812987      -12.27604389370646
C            6.48627079536745       -0.95540548086750      -12.36353474849564
C            5.57654080702435       -0.17402543782851      -11.67760997274021
C            6.01435945917219        0.88034557314710      -10.90773887469273
C            6.68178359745096        1.54552205847483       -7.96313972810914
C            6.06744742480423        1.82142345756884       -6.76685113895887
C            3.71444527068301        4.18140002990601       -2.61223306827665
C            3.05335936149058        4.46231383625445       -1.43792372882278
C            2.89539477904198        3.45431847857071       -0.49328389805914
C            2.22519092994285        3.46696534339486        0.80668765847566
C            1.55293319261215        4.48961075822946        1.46652428883475
C            0.98350569428290        4.23061320984555        2.69231598104276
C            1.06637315728798        2.96321558425049        3.29258857433961
C            0.43405210364992        2.74510351008097        4.58044438690983
C            0.49511148118347        1.60629546815194        5.29460544019077
C           -0.15711527601587        1.37455568461763        6.56953485244971
C            0.07536759294983        0.17692984117468        7.25519750085001
C           -0.53481495893481       -0.08229690693331        8.45706650243336
C           -1.41017064988430        0.84058621925948        9.03007891113957
N           -2.05830315257023        0.56565516965649       10.27548534765467
C           -1.40466988690768       -0.23285358664063       11.27571804258169
C           -2.12876975363221       -1.14081347079549       12.04527292494131
C           -1.50467457542924       -1.90179717540368       13.00839047043492
C           -0.14617560767837       -1.76984275495313       13.22242502893674
C            0.58596291061910       -0.87240891836584       12.46921406538631
C           -0.03610597533407       -0.11025255098267       11.50563482186561
C           -3.37572433600685        1.07951163457768       10.53341447590254
C           -3.72157694388066        1.54829735851438       11.79878358047667
C           -4.98559991604083        2.03518591245552       12.04687784864856
C           -5.92821809806055        2.06175284993506       11.03712383827942
C           -5.60175700381499        1.59846350759752        9.77722698153638
C           -4.33851077395508        1.11098645444683        9.52690445770410
C           -1.64395345988998        2.03635777298131        8.35014075542934
C           -1.03286315627144        2.29949448906627        7.14920437700222
C            1.74892596572301        1.94346261898181        2.61517288315408
C            2.31737151582103        2.19748130364377        1.38836373293268
H            0.31962606771977       -0.39317838022716       -0.95949012940814
H            1.11044352874888        1.06074910352538       -1.56185158870105
H            0.30290688013023        1.08613037850040       -0.00357287952199
H            2.80546296958554       -0.57368932878825       -0.65234531382995
H            2.00160050653591       -0.55088320035907        0.89716487253783
H            4.92701006090417        0.11774754256566        0.42011489783329
H            4.12751893624365        0.12380035487767        1.97238562284543
H            5.61200083465257        2.52403289086044        0.75808177195655
H            6.21889348944564        1.50987237087050        2.06425505198078
H            4.80694441625850        2.53124649063944        2.31776846591370
H            4.44822510558445        0.90961224554603       -2.09274467594021
H            5.14575657600581        1.54422046274298       -4.27323629613736
H            5.09936790459472        4.51356358969472       -4.88280457476802
H            6.35870883825249        5.18225158296947       -6.78464085276946
H            7.45219618823913        4.68048058740215       -8.92146449602743
H            8.32468587127443        3.00767329896334      -12.52243567477252
H           10.20662692278992        4.37008088963809      -13.33047629055234
H           11.87102148490102        5.23187946365206      -11.73769239641606
H           11.65465099944544        4.72426942113986       -9.34097490071194
H            9.77967545645971        3.34744052294109       -8.54234746241771
H            9.32841058595568        0.59233113597579      -11.42910786753920
H            8.54740347613126       -1.28764135637215      -12.81051230912113
H            6.14251556698880       -1.78019895744475      -12.96638582298153
H            4.52248193112793       -0.38890657725282      -11.74632518660523
H            5.30935806035747        1.49862067663653      -10.37981198034747
H            6.77994184036230        0.52825939789287       -8.29993383714449
H            5.66558112036398        1.01322438594784       -6.18211959604379
H            3.82173691501081        4.95745189100543       -3.34866510357638
H            2.65383841968861        5.44246967872282       -1.24517832868179
H            1.48164764815124        5.46284573180124        1.01359934193156
H            0.45846428892916        5.01480891946735        3.21051276261495
H           -0.11994251809094        3.57399589963419        4.98078359206378
H            1.07408328924243        0.78834378679582        4.90731451537505
H            0.74443033458856       -0.54908186918599        6.82543242899734
H           -0.35569238181213       -1.01307283403737        8.96623058029906
H           -3.18545529481616       -1.24369415600511       11.86996168105849
H           -2.07676574275513       -2.60158248677100       13.59570828655798
H            0.34166139746526       -2.36547860653028       13.97681506202586
H            1.64550529392916       -0.76723151367253       12.63726910758535
H            0.52728579094457        0.59874712330921       10.92439674048243
H           -2.98123260492468        1.53074064125659       12.57945945473502
H           -5.23973383159926        2.39641708288619       13.03014108817142
H           -6.91746012793222        2.44285453117535       11.23214002177543
H           -6.33703989691424        1.61727498962605        8.98925483439801
H           -4.08207243208774        0.73901398038077        8.55028725163212
H           -2.30877925660189        2.75961905187022        8.78899675075729
H           -1.24035891235952        3.22636682078700        6.64516061130896
H            1.82720818722915        0.95816639747373        3.03371851167491
