114
 energy: -21.773378837368 gnorm: 0.000840453635 xtb: 6.5.0 (97a52f5)
C            0.27094418109675       -1.40939323146622       -0.55219536155687
C            1.43830169027029       -0.54400128353144       -0.10438015870872
C            2.79462946079033       -1.30432763363411       -0.08321311511320
C            3.96995210335839       -0.43180275992297        0.44326666441897
C            5.27562188512890       -1.19932878020307        0.58139308970305
C            2.65544283308772       -2.52465367940526        0.81917278851786
C            2.37494376033738       -2.56819625162080        2.16692237450296
C            2.32511181452620       -3.79498346635960        2.83299026076006
C            2.02370529875362       -3.82144522123794        4.25455024371012
C            1.93402959250315       -4.92593362348003        5.01517822469331
C            1.63353888875563       -4.92595342957425        6.42141063412802
C            1.40166660487073       -3.84007688621444        7.22167645783464
C            1.13026094426587       -4.17637938275039        8.57425961576806
C            1.15357967378309       -5.50880524336860        8.81227734759793
S            1.51304585869770       -6.39011788383085        7.37019940391091
C            2.57859565210075       -4.95655418890977        2.09413997889056
C            2.85919617132661       -4.90878889647031        0.74648121891684
C            2.89207117972812       -3.68499214869181        0.08221182502143
C            3.15856960350827       -3.31070794096124       -1.32540631959049
C            3.11933981011078       -1.91080707868595       -1.45225341609117
C            3.32281343924626       -1.30494373627848       -2.70135394163434
C            3.56433748051791       -2.11369812490558       -3.82456710693754
C            3.61867028944307       -3.50857623829589       -3.70711611280210
C            3.39897469029823       -4.10247472125693       -2.45545416844366
C            3.42628451151665       -5.62635290154939       -2.61024674031963
C            2.04139159025322       -6.24328260492946       -2.26393290396373
C            0.89829261355839       -5.63626475081411       -3.06268914389146
C            4.62089931955966       -6.20780412166543       -1.79003824025936
C            4.58216461495468       -7.70521457457340       -1.53149088038265
C            3.69650321175355       -5.81720370402488       -4.10061147378503
C            3.79620313741187       -6.98841651212796       -4.81999684496660
C            4.07110997075722       -6.95009138668486       -6.18913188879382
C            4.19841275360054       -8.15596498066179       -6.99040643431423
C            4.12442678648110       -9.41356248240006       -6.52186373125863
C            4.26269888406315      -10.59577995334431       -7.32840709608602
C            4.48110160704359      -10.66159527631538       -8.67786447700321
C            4.57184677238965      -11.98821087498836       -9.17600484229463
C            4.42484434190142      -12.93371765403846       -8.21840851926587
S            4.16933862978314      -12.21301852285530       -6.66916771318563
C            4.23266189136239       -5.69918534430761       -6.79464183761688
C            4.11689261140177       -4.52911032176448       -6.07895962851885
C            3.83315525436879       -4.57052289016862       -4.71604252786351
C            3.68071902816345       -1.23133302254170       -5.06979248352053
C            2.53709407336707       -1.54215438954389       -6.07723332684870
C            1.15043372040982       -1.43669859516363       -5.46117899740238
C            5.12086516332842       -1.35755330134767       -5.66030505934157
C            5.29960675692867       -0.86075966261411       -7.08566756636107
C            3.48341934307503        0.17511620705427       -4.51421381027178
C            3.45701578592135        1.37471145344493       -5.19153778747477
C            3.27452571106139        2.57228754907232       -4.49709289362151
C            3.26342326110399        3.82710244605115       -5.23076665459036
C            3.20461896585806        5.05274576286601       -4.68221441604241
C            3.20301827835121        6.28153256221437       -5.42899515701545
C            3.23346714105359        6.42660791587186       -6.78939347177934
C            3.22312582234843        7.78006620755482       -7.21797017589407
C            3.18616195199931        8.66789147778150       -6.19692443404796
S            3.16174614535928        7.85783655108361       -4.67141497485867
C            3.10996000371781        2.50924425206020       -3.10947993287932
C            3.11774670184517        1.30796753122242       -2.43618329230531
C            3.29841517743071        0.11388178017302       -3.13032905368409
H           -0.67127241281880       -0.85686842660338       -0.55987871520981
H            0.14109562568276       -2.27071514392249        0.10527432874692
H            0.43295488056937       -1.79706758678109       -1.55964379983191
H            1.24884803380857       -0.14453286764816        0.89831786934867
H            1.50936397464783        0.32860430366750       -0.75550730196272
H            3.67976218559383       -0.00475242897763        1.40984094472137
H            4.12613315833162        0.42160709333425       -0.21815484544858
H            5.17328555635023       -2.03420743142287        1.27666862219030
H            6.08786619211006       -0.56678770644468        0.94632427012034
H            5.58936078749370       -1.61768531318323       -0.37668794029953
H            2.19784635012825       -1.65554881301600        2.70638362690282
H            1.85957436068254       -2.86782848182473        4.72301343501256
H            2.09044017864593       -5.88914561223664        4.56558104608421
H            1.42439838999740       -2.82270424463414        6.86373680801283
H            0.92478722907766       -3.43831566783146        9.33643124298948
H            0.97449701069810       -5.97278610161308        9.76406092556480
H            2.55885506554793       -5.91122987432620        2.58847445245440
H            3.06713980615623       -5.82290124766058        0.22649959135422
H            1.83705664390593       -6.12848906222388       -1.19783494488322
H            2.08472436192451       -7.32322654266850       -2.44153174167498
H            0.81847691601996       -4.56280168832083       -2.88183824766608
H           -0.06473573861912       -6.08479169631655       -2.80884337074881
H            1.05042097449884       -5.76963001186470       -4.13508869197505
H            4.70367367443850       -5.66547219981911       -0.84319638803082
H            5.54311360752985       -5.94655333690034       -2.32345266986019
H            3.69324586561925       -7.99242530782742       -0.96778141235932
H            5.44833461784767       -8.03903951421127       -0.95538393675498
H            4.57824445431299       -8.27548590617039       -2.46020513677629
H            3.64060229385378       -7.92683410697213       -4.32467856314600
H            4.37278010996927       -8.01443409109382       -8.04174032886595
H            3.95712171706188       -9.57508278645933       -5.47278859989169
H            4.57570567748855       -9.79072030220457       -9.30737056964969
H            4.74163879896650      -12.21740439662234      -10.21833031397087
H            4.46036600161714      -13.99442505167772       -8.38227389003623
H            4.45266193679374       -5.65931795031164       -7.84798639246655
H            4.26398794986457       -3.59467477330329       -6.58336199516196
H            2.66972417245874       -2.54088134272759       -6.49732921225199
H            2.61962610602201       -0.85249038413955       -6.92413013218682
H            1.03428447561552       -2.13585061414258       -4.63105398255897
H            0.36112187285003       -1.65178685901996       -6.18491847810089
H            0.96879367309724       -0.43642681382123       -5.06433346214695
H            5.45109706203194       -2.39794565921193       -5.58100403768294
H            5.79904333157812       -0.81539299033043       -4.98991804169875
H            4.66695532595376       -1.40992616989612       -7.78469180023177
H            6.33063785282709       -0.97608479197419       -7.42807911124745
H            5.04885619725958        0.19568487273626       -7.17949926455448
H            3.56298753890530        1.39296623615856       -6.26006554562290
H            3.32054619300550        3.75214210293382       -6.30167615798157
H            3.16638201528108        5.14969605770059       -3.61288112512419
H            3.26334122275725        5.59463232409901       -7.47500013420686
H            3.24365499319064        8.06910901877430       -8.25896238850343
H            3.17176036382011        9.73629121682572       -6.30349498021827
H            2.96256564933392        3.41799002622852       -2.55375013759638
H            2.98483127822327        1.31388600891980       -1.37380139070881
