97
 energy: -18.628022530303 gnorm: 0.000359555137 xtb: 6.5.0 (97a52f5)
C            0.87559526719073        0.19773813167599       -1.18568061007553
C            1.88730515365016        0.31281492708265       -0.05705124236365
C            2.94778450110841        1.43566665748313       -0.21965446899464
C            3.80736626154916        1.22803056387610       -1.49304798788069
C            4.92615036040420        2.24609381431701       -1.64154241258901
C            2.30638407572363        2.82678258034254       -0.20742844783988
C            1.48030626608019        3.43431864822746       -1.12173073967638
C            1.03409425781846        4.72876968766405       -0.88152050882842
B            0.09267795984665        5.37914165553657       -1.92060996059862
C           -0.72339104252972        4.44910544124041       -2.88112373027603
C           -1.62430070990337        3.53608522231275       -2.32498254281051
C           -1.87630822148895        3.48197143141054       -0.85845097889148
C           -2.29275475023557        2.66232420012779       -3.16231392551745
C           -2.08520468234662        2.66974927937206       -4.53393531182443
C           -2.82669134748329        1.73234761529156       -5.42286800466265
C           -1.19734567427746        3.59375782045161       -5.06538397297836
C           -0.51168775087646        4.48651762654486       -4.26060470303818
C            0.46517372826590        5.43387202300026       -4.86149030245106
C            0.01166466411190        6.93863465819962       -2.02502827791025
C            1.17979619463809        7.66422888047417       -2.27644993619793
C            2.49405764752737        6.98889492538953       -2.45972281816006
C            1.10896869721901        9.04374436359616       -2.34071737306582
C           -0.09137104024853        9.71790072723820       -2.16702028541463
C           -0.15912450005628       11.20422490657643       -2.24243825989200
C           -1.23879454976040        8.97716710352569       -1.92609276592288
C           -1.20835070827468        7.59560356528256       -1.85391879104281
C           -2.45389614254797        6.83518273662853       -1.56511903583826
C            1.43152006026280        5.41215804415909        0.26541055868243
C            2.28116592219401        4.82539500016800        1.17255101628912
C            2.72614858639807        3.52537509566007        0.93541420412218
C            3.66518391925671        2.70110586898369        1.68667691113990
C            4.38991337759216        2.98063323400939        2.84275132335013
C            5.26333834727967        2.03666787780152        3.32581593959429
C            5.44013866477453        0.79926916118367        2.68417638267258
N            6.36439897339125       -0.15843727535757        3.18689624220362
C            6.71604173620250       -0.17985466622742        4.57848213715409
C            8.02621180009029       -0.44985905369252        4.97599498543239
C            8.36785805867705       -0.47156938369675        6.30900809418948
C            7.40923802598806       -0.22866051149696        7.27452304685417
C            6.10508552932701        0.03411838856564        6.89971681529320
C            5.76031725649447        0.05702786791964        5.56742459613586
C            6.96787731034181       -1.11740539448026        2.30481177719820
C            7.18597340937647       -2.43037234242087        2.72405118602024
C            7.76282610176344       -3.35247434907885        1.88072342469798
C            8.13734283258296       -2.98412553088113        0.60229771639023
C            7.93462474049706       -1.68651688230811        0.17174848286036
C            7.35866026373332       -0.76199631963702        1.01287405911143
C            4.69998689420872        0.53134510355650        1.52459998273923
C            3.83047185442026        1.47298997304017        1.03262195764021
H            0.17514711559561       -0.62431223629083       -1.02006826641762
H            1.36008383592221        0.01780629923774       -2.14638511976080
H            0.28115793883307        1.10613612143862       -1.28422629776148
H            2.41686533177943       -0.63911842739983        0.06614412851833
H            1.36665690045156        0.47806955252644        0.89364585706912
H            3.15281125420750        1.26535887664481       -2.37044317246906
H            4.22019886006725        0.21291799092777       -1.47332591832045
H            4.53097444119603        3.26265545324464       -1.68507437439891
H            5.51380277752967        2.08179860222927       -2.54761179938523
H            5.61228814233808        2.20562864273144       -0.79364172749037
H            1.19781393513588        2.93042804608212       -2.02700000739774
H           -1.34539909891966        4.27506578793788       -0.33255319255408
H           -1.54745068845805        2.52948526480112       -0.44126420785983
H           -2.93974091966837        3.59392902309902       -0.64221736213504
H           -2.98779898719177        1.95876617862989       -2.73886514523304
H           -3.10967714870772        0.82341649573075       -4.88985040329488
H           -2.21725338314955        1.43726977706936       -6.27844989143838
H           -3.73761664123759        2.19728423669380       -5.80273000257209
H           -1.03522608069953        3.61093481403538       -6.12873405892124
H            0.37412812557453        5.46306579269770       -5.94822170598853
H            1.48739066229947        5.13880903100492       -4.62246292828857
H            0.30531540607631        6.44713215952721       -4.49307623235861
H            2.37418826924031        5.91536989261808       -2.60375393643077
H            3.13182224161005        7.13859894092511       -1.58750578243991
H            3.01762927321192        7.38308973562416       -3.33193784534869
H            2.00657458022075        9.60590741730003       -2.52926389892680
H            0.83253560081177       11.64330585012748       -2.36061993609436
H           -0.60084056241685       11.61970439948454       -1.33538091657109
H           -0.76834878747744       11.52234072070259       -3.08981115997164
H           -2.17285336227780        9.49278941541419       -1.78816642763367
H           -3.32927314311494        7.48617392736152       -1.57306543932602
H           -2.40064351610735        6.36435114932583       -0.58307544584659
H           -2.61805368163919        6.05659526810277       -2.31018871215962
H            1.07052639941255        6.41328094405651        0.42465441940293
H            2.60930179928066        5.35314952383295        2.05075281109574
H            4.26910954314321        3.93025467948961        3.33383806865702
H            5.84939448019431        2.25089426089753        4.20203881922375
H            8.77072398064984       -0.63102652109105        4.22040395897923
H            9.38516964274961       -0.67709904827339        6.60055750148968
H            7.67802969885720       -0.24510629489994        8.31831842016701
H            5.35622701792506        0.22022959972585        7.65251710283609
H            4.74279057617100        0.24633258079912        5.27266308142756
H            6.88501639227988       -2.71461865699394        3.71738248116738
H            7.92114896175976       -4.36428924573160        2.21731725419338
H            8.58783078568648       -3.70763723282003       -0.05774042430297
H            8.22880764604036       -1.39776596618653       -0.82437011199598
H            7.21295123451438        0.25287148640751        0.68596753128593
H            4.80734557032308       -0.41282740755568        1.02420697064142
