108
 energy: -21.423503574867 gnorm: 0.000789067273 xtb: 6.5.0 (97a52f5)
C           -0.21787504152016        0.93666646934986        0.60809711876607
C            1.09834793921020        0.33767118807716        1.08022297850587
C            2.28994034552207        1.33819366075080        1.01537712575003
C            3.59705619280835        0.78396525774685        1.65204189745724
C            4.72806303359935        1.80021594635313        1.68220993634867
C            1.89234104241695        2.60118008669959        1.75878710804663
C            1.53468367657277        2.73417734124364        3.08463574404239
C            1.13609394392370        3.97378065854500        3.57294127049589
C            0.75608818522575        4.12935459030954        4.92154703219909
C            0.41393137619902        4.26325701265596        6.08813234907270
C            0.01460019464716        4.42311433658355        7.41832862136447
C           -0.51268009755787        3.46706725132334        8.23334689703994
C           -0.82605413027023        3.93283342994566        9.54159363046213
C           -0.53873073358027        5.24012669263977        9.72636624331479
S            0.12748741614467        5.93274913962500        8.28917728962536
C            1.10256268919636        5.05248751389965        2.69181650823511
C            1.46020850333655        4.91096647428355        1.36782765605431
C            1.87812002176323        3.68010790849610        0.87580414002011
C            2.29908655048754        3.21648134485570       -0.47341667530751
C            2.52237981319396        1.82758272722557       -0.41620874177157
C            2.94614074368746        1.11309738631375       -1.54525386816367
C            3.08657664147581        1.77895066240408       -2.77610112941350
C            2.74498844648168        3.14251629075232       -2.86389217871418
C            2.46790817429509        3.89091444539792       -1.69756374462844
C            2.55387603079524        5.39472191374883       -2.06562846653540
C            1.29018644995474        6.23573336908077       -1.70578140625903
C           -0.01199133433592        5.45833660111094       -1.80467603714194
C            3.87212262904308        6.03622011809801       -1.54454556742064
C            4.07189379390764        6.05448073655034       -0.04001275558244
C            2.64773381166695        5.36383500671444       -3.59066028461948
C            2.60360354440703        6.42060877415907       -4.47917410063931
C            2.52808390587861        6.17700620807697       -5.84736866658893
C            2.47507848421858        7.24654991695004       -6.76418554148974
C            2.43001512897910        8.18495060547419       -7.54732225895269
C            2.37507702320488        9.26704650379906       -8.43068557758607
C            2.39880401826144        9.21547717135722       -9.79190930631426
C            2.32692007034693       10.49165434431938      -10.41873079552447
C            2.24826720694818       11.51500192788685       -9.53987234144181
S            2.26118481340726       10.93096541157190       -7.91267714225032
C            2.45876876214585        4.85559362111655       -6.28520520504171
C            2.51147376849001        3.80252265415720       -5.39672690113843
C            2.67022074224129        4.04465808754232       -4.03567288595204
C            3.82845685973342        0.83891815517836       -3.75475350951210
C            3.07879316961552        0.55122279186168       -5.08466699014900
C            1.58162435332585        0.35578354007778       -4.90802102534095
C            5.29087989296313        1.30976582463062       -4.00623694088339
C            5.46186914949653        2.66721245926151       -4.66447111849625
C            3.90356455398599       -0.47024541798759       -2.97495300441929
C            4.39474123798717       -1.68837228604199       -3.39992269647915
C            4.35475735141811       -2.78940069948612       -2.55142162188097
C            4.84111202817259       -4.04260472926140       -2.97660924290505
C            5.26089150747360       -5.13319380288917       -3.33773795274942
C            5.72583247031979       -6.38181962795765       -3.76125103192467
C            6.93120353208304       -6.94806572425392       -3.47367876850470
C            7.11672542233490       -8.23515568999858       -4.05310817308111
C            6.05704100478667       -8.65140585931766       -4.78079115396791
S            4.79934677979182       -7.46529598153869       -4.77014050926962
C            3.81312055038371       -2.62620228508901       -1.27859937392063
C            3.33035685791864       -1.40705750806719       -0.85268189916220
C            3.37601318815173       -0.29927769363192       -1.69664373658745
H           -1.03706221031348        0.21565435499564        0.65248948920556
H           -0.14274714126166        1.28649692806033       -0.42304868531002
H           -0.50469761407336        1.79549732455307        1.21708255418677
H            1.31728735875038       -0.54547086473401        0.47915855305417
H            1.00100293627796       -0.02211087611883        2.11056250304139
H            3.93030046968092       -0.10411079354996        1.11378671191274
H            3.37033185034722        0.44225081727028        2.66815986428379
H            4.97983864692169        2.13793418689505        0.67531444282922
H            5.63676837430968        1.39105182963123        2.12909942021102
H            4.45024497218404        2.68557675793732        2.25649706529933
H            1.55274835093545        1.88102740246854        3.73827530026999
H           -0.67648154687453        2.45049362732201        7.90900214627392
H           -1.25139013950519        3.30072752656526       10.30787382715072
H           -0.69601362160379        5.79045035508762       10.63498707870575
H            0.78275299739736        6.01129919279722        3.06327824154893
H            1.39695916648213        5.75675222804003        0.72150685949588
H            1.25159441848850        7.09580790880392       -2.38469220477160
H            1.40529384255768        6.70580781464742       -0.72844691786155
H           -0.14518788953829        5.04332183842454       -2.80531005131303
H           -0.88150041504805        6.08205289982531       -1.58627363170361
H           -0.02700691084278        4.61967403959441       -1.10704637137332
H            3.93545952915825        7.05609938265943       -1.94100280122681
H            4.70304694393948        5.49518436811542       -2.01330643934316
H            3.33215531024511        6.68033213690929        0.45935428923886
H            5.05370287089141        6.44829759506198        0.23299143829086
H            4.00128628182444        5.05134742785784        0.38169111956071
H            2.61462537505393        7.43387345154452       -4.12051355692501
H            2.46585140122016        8.28720862127032      -10.33891544425144
H            2.33465505756895       10.62453374180211      -11.49107145418679
H            2.18534667213494       12.55536703003298       -9.79850627898150
H            2.34634538472066        4.66622852563077       -7.33929607327318
H            2.33418766479809        2.80927014992588       -5.75188663667490
H            3.51527519399169       -0.34840966077374       -5.53402932415724
H            3.30421350425245        1.32958588009126       -5.81508301141013
H            1.37213022936344       -0.47514650923487       -4.23209298662481
H            1.07936681884251        0.14631900898012       -5.85491778330982
H            1.11356959774674        1.24142814615943       -4.47545020314050
H            5.79384113127066        0.54236891582683       -4.60584300167167
H            5.81023866512159        1.30422527360421       -3.04054985980649
H            4.97326169784981        2.71069822712395       -5.63817177836509
H            6.51483896525990        2.91105738591212       -4.82319999748771
H            5.04146638402620        3.46249572507651       -4.04874399625933
H            4.80998388024957       -1.79308125616840       -4.38579054479576
H            7.67401779919264       -6.45885660590612       -2.86195374261502
H            8.01756740853411       -8.81759568627626       -3.92308555288932
H            5.98788918018892       -9.58778919352793       -5.30193623617249
H            3.77521562147616       -3.47921442332736       -0.62236460002708
H            2.91673184864686       -1.33947840963276        0.13239504187808
