44
 energy: -9.471384730082 gnorm: 0.000781390186 xtb: 6.5.0 (97a52f5)
C            1.12809391855987        0.01613525136276       -0.01509183814011
C            0.34047674948707       -1.07875927639489       -0.01062081925056
C           -1.11989129848237       -1.05722653660143       -0.02219916346427
C           -1.84609491334908       -0.17440691705093       -0.87296396863611
C           -1.21045983891041        0.66344472654447       -1.82585456660507
C           -1.92418960551032        1.50373277158600       -2.62318268603733
C           -3.32306851533519        1.55699907524713       -2.53218924684648
C           -3.98190246750544        0.75148432788933       -1.65994349161189
C           -3.27207782389998       -0.14654528691841       -0.81814939040991
C           -3.94948257589356       -1.00932660889440        0.03963055313952
C           -3.26613175138165       -1.91008210483746        0.85203317670959
C           -3.96556024299115       -2.79544458139952        1.71539724776107
C           -3.29362817313630       -3.65889615097283        2.51977649572299
C           -1.89064843146080       -3.68483703779359        2.51351297860767
C           -1.18618652102211       -2.85312765856062        1.69878328954670
C           -1.84043436033931       -1.94251894812466        0.82902795449031
C            2.57855120645686        0.01841022996813       -0.02498429535671
C            3.33922248838575       -1.17871738392796       -0.03147482418527
C            4.69826912560281       -1.15200956897406       -0.04965275312304
C            5.40060981755520        0.07607892003022       -0.06486258613777
C            6.81097536490787        0.13799888105927       -0.08865698638286
C            7.45337057833127        1.34050287156874       -0.10641267060303
C            6.72284085347098        2.53577326928010       -0.10122076367803
C            5.36094048747172        2.51262460131674       -0.07787883667597
C            4.66113992151148        1.28289000769287       -0.05914144848510
C            3.25303172836002        1.22212350151356       -0.03812701285711
H            0.64881513138014        0.97864643437149        0.01886186334239
H            0.81298196839225       -2.04352120979672        0.03634781197816
H           -0.14359306737848        0.60846745537504       -1.94319435181907
H           -1.41538239478487        2.13094767068014       -3.33703725637327
H           -3.87395695077921        2.23154773430305       -3.16724191822689
H           -5.05643945617559        0.77876055490049       -1.60079880315998
H           -5.02388732887259       -0.98670479062772        0.06754258356400
H           -5.04170872263419       -2.77007222801567        1.72396879107566
H           -3.83642450579087       -4.32484654394661        3.17066858903466
H           -1.37078917130224       -4.36883934074276        3.16444044822994
H           -0.11149124694010       -2.87648683100749        1.72300920972562
H            2.83176014069693       -2.12644732891749       -0.02401056434255
H            5.26005059021298       -2.07026010416774       -0.05467563277883
H            7.37324348193037       -0.77989260805393       -0.09349868623782
H            8.53047346103173        1.37533636943076       -0.12526510092555
H            7.24527517839828        3.47839480062724       -0.11633745837293
H            4.80025638879539        3.43145639597815       -0.07468169127681
H            2.69404078293622        2.14046319500141       -0.03643218092898
