110
 energy: -21.288115525004 gnorm: 0.000929195518 xtb: 6.5.0 (97a52f5)
C            1.24698361478631       -0.50425053760503       -0.53903529062551
C            2.66477091895217       -0.11201622882823       -0.15724220223635
C            3.02822928381497       -0.26071354030091        1.35397719922131
C            1.89375442732262        0.15060569638099        2.33516927208304
C            2.28674974072736        0.01648549185476        3.79819902002334
C            3.43327421870085       -1.70575408208138        1.63579704611343
C            2.65983615933817       -2.85019607587557        1.60300799613106
C            3.23603112986434       -4.06428293560353        1.92036486966757
C            4.57085153956192       -4.12894788080566        2.27551255233679
C            5.34320734907379       -2.98626193792479        2.32340727841295
C            4.78066033608297       -1.75362461600464        2.00188540882262
C            5.32717045436857       -0.37568253394518        2.01064515081238
C            4.31242894387937        0.52180531606001        1.64437017053890
C            4.56147329370102        1.90062134750699        1.60025152926498
C            5.83179010602111        2.38460471734459        1.95306825425173
C            6.85119095089585        1.49937173832398        2.32873000376094
C            6.59762919537869        0.11784035571776        2.33624958067429
C            7.88552545156134       -0.62724857330058        2.70039943721870
C            8.34885775179302       -1.53791672769942        1.52852755987731
C            8.52037391327599       -0.78648675453723        0.21743976090922
C            7.68743114041324       -1.36861603787650        4.06017300098760
C            8.71822749724781       -2.43584500914408        4.38965811473951
C            8.89635139318576        0.50159668359318        2.88659971573759
C           10.23981633686205        0.42165025876587        3.18448896009603
C           10.99188873973752        1.58698690117339        3.34564247822655
C           12.41680693806616        1.54285311443450        3.65927955951230
C           13.18195722521344        0.42363453304292        3.83519620307248
C           14.54528359595379        0.69935345433941        4.13229092971390
C           14.82761674441657        2.02121834910787        4.18437334176580
S           13.41513035358469        2.96562165833994        3.86892008630944
C           10.34284498711739        2.81622970090942        3.20281105212954
C            9.00473752872693        2.89842206427405        2.89039841414200
C            8.26210886482899        1.73409799245618        2.70712944814600
C            5.84015429640186        3.91165882715896        1.83002301291904
C            6.84857493160797        4.38017121935784        0.74225984700382
C            6.60989418054796        3.73781915847210       -0.61532098607222
C            6.06979677430291        4.54197898101048        3.23850453345142
C            6.43522716246066        6.01727553588223        3.25382607798151
C            4.42461156048366        4.22504957931972        1.35379915760463
C            3.87630894800568        5.44094528289409        1.01594658520029
C            2.57022249796394        5.51140608827363        0.53370332876392
N            1.99250245164093        6.77214124942713        0.18316316000020
C            2.83404875558036        7.85701070433234       -0.24310517768178
C            2.58791903640037        9.15787494815535        0.19055550346702
C            3.39970669876322       10.19683924928665       -0.20636190053134
C            4.47153209564432        9.95717640081939       -1.04473391982647
C            4.72636061463406        8.67352342960212       -1.48777159242953
C            3.91521049813625        7.63322712911761       -1.09327725146590
C            0.57343547074004        6.97797097766615        0.27779671777212
C           -0.09621031052315        7.74244568636470       -0.67524328372492
C           -1.45538642561240        7.94478469193229       -0.58664668666862
C           -2.17178715284371        7.38941628670599        0.45610568826496
C           -1.52206895309480        6.63278028059236        1.41235786481488
C           -0.16271720431731        6.42999906955771        1.32630892037836
C            1.84951440062284        4.32373215334904        0.39017696296399
C            2.39831259863776        3.10597626801217        0.71799797905842
C            3.69945695282923        3.03777299636346        1.21445996483532
H            1.06936006746552       -0.38795319751363       -1.61074810078148
H            0.50779108011136        0.11114940990412       -0.02375480634661
H            1.03570994852039       -1.54437463752548       -0.29073815674090
H            2.86956842103550        0.91436044090730       -0.47695198367887
H            3.38330179431886       -0.71317040210621       -0.72796789893589
H            1.01253712373043       -0.46682680176599        2.13034769975226
H            1.58400880523925        1.17867210718722        2.13821929450239
H            2.56495534838787       -1.01053064188134        4.04087509792099
H            1.47506616286048        0.30471067258825        4.47000977595165
H            3.14718483222370        0.64533615524622        4.03422024027521
H            1.61552340637855       -2.78956732006911        1.35403902886574
H            2.64135152449822       -4.96306838125739        1.89733729408980
H            5.01015119489364       -5.08098266252498        2.52638397481073
H            6.36941686645574       -3.06386251889057        2.62383131814231
H            7.63741115659022       -2.35393485682130        1.38680378726108
H            9.29438558324456       -2.01515232988254        1.80789292167275
H            7.58288536618259       -0.32398854834665       -0.09680961781334
H            8.85130871357708       -1.44128141257253       -0.59182808545194
H            9.25553204307400        0.01442846620189        0.31349539901746
H            6.68060849650277       -1.79598990905451        4.09382847631355
H            7.67539035013061       -0.60725492198410        4.84987798206048
H            8.72378586718397       -3.23268177993531        3.64416371918159
H            8.52132362245952       -2.90397276088309        5.35702119165851
H            9.72620590254575       -2.02330322726013        4.43396453469025
H           10.70994429253135       -0.53852030760990        3.27426753004091
H           12.79389172229043       -0.58021158639001        3.75619955271180
H           15.28187713346384       -0.07450661304368        4.29678916092322
H           15.79268199670665        2.44436044354016        4.39088270046498
H           10.91634367395124        3.71621640880140        3.33994845266882
H            8.54633834546421        3.86439343212295        2.81090997155045
H            7.87059258521996        4.17329485300055        1.06450429458609
H            6.78314871006238        5.46980878663823        0.65133914261860
H            6.69694109088429        2.65122342877957       -0.55761007870302
H            7.32313098656167        4.08558801583883       -1.36616682276910
H            5.60799306125539        3.95931993124354       -0.98719141613047
H            6.83084246545054        3.96246755463137        3.77002198296192
H            5.15666947734788        4.37867327616102        3.82392656412178
H            7.36273131037579        6.20683371866318        2.71118571407764
H            6.57834006522123        6.38788880663166        4.27154915714169
H            5.65852198538195        6.63106651340301        2.79783205660522
H            4.45502157282013        6.34002489538281        1.10467101266628
H            1.75677461301925        9.33665788796599        0.85029387165021
H            3.19976748791111       11.19819933529645        0.13911555289507
H            5.10746231549584       10.77089057058774       -1.35359302105983
H            5.56111821077707        8.48598891631170       -2.14355243888464
H            4.10354764907519        6.63300404382755       -1.44295994067484
H            0.46636113490362        8.16834817678439       -1.48775097279445
H           -1.96108057737672        8.53678526626629       -1.33223881857288
H           -3.23595431441200        7.54730444979931        0.52410182454772
H           -2.07995796132467        6.20144773497120        2.22770420494457
H            0.34984737554321        5.85258334686839        2.07598336026034
H            0.85084627192968        4.37241003742129       -0.00743484159546
H            1.82011363840477        2.21684563858173        0.56291874941700
