125
 energy: -24.601206871760 gnorm: 0.000399781810 xtb: 6.5.0 (97a52f5)
C            0.77703916706110       -0.26026117988378       -0.08606995551421
C            2.28774700075297       -0.14036781727835        0.04151427347180
C            3.02128933298370       -0.13177717757381       -1.32976588573266
C            4.56986897253393       -0.08314546979766       -1.18863742841930
C            5.30008254466434       -0.17571829634980       -2.51933243264942
C            2.64514398306762       -1.39614645488688       -2.09362322743454
C            2.87950903347893       -2.71326228054486       -1.75067463811286
C            2.48523907248405       -3.71346289846104       -2.61723611126051
C            1.87263636047023       -3.39270840680837       -3.81539837141511
C            1.63943144675885       -2.07625793416420       -4.15948247037546
C            2.01625565292048       -1.05431016557110       -3.29113645840893
C            1.90357756139768        0.42178439546627       -3.36594881085350
C            2.50355020149727        0.99426679505049       -2.23047259746879
C            2.51794922596331        2.38779640865581       -2.06013931397588
C            1.91398665208881        3.20442277642019       -3.03185463799654
C            1.30979733905706        2.64416443593995       -4.16517980026455
C            1.30507906062833        1.24926603459272       -4.32429510386122
C            0.56055480887669        0.89240705272032       -5.61441372700813
C           -0.72207969732351        0.06799945807330       -5.30725349081948
C           -1.65727064711700        0.75820395569268       -4.32639982864080
C            1.54944882635019        0.21047498990601       -6.61104479349242
C            0.91332959022281       -0.51734033023843       -7.78405187500790
C            0.14839354076200        2.25573927413586       -6.16099454393267
C           -0.59290306017446        2.54845053964225       -7.28249535028037
C           -0.90312548408753        3.87146376029253       -7.59300005399692
N           -1.68593531789654        4.18141846853347       -8.74896081906445
C           -1.58596679512667        5.46753583277705       -9.38385529930008
C           -2.72598090768103        6.10254342829921       -9.87196465847151
C           -2.63859084097078        7.33276476325889      -10.48450503520339
C           -1.41091442426241        7.95112337130177      -10.62399992643927
C           -0.26973774065940        7.33162264018341      -10.15148235343994
C           -0.35463112104870        6.10072754830947       -9.53954793798589
C           -2.56976373805614        3.19570941906121       -9.31158723870286
C           -2.64383524032461        3.02025615870402      -10.69170246392128
C           -3.47446396488506        2.06621481324065      -11.23587618707533
C           -4.24925700328228        1.27165070193214      -10.41274387603793
C           -4.19344100324756        1.43855663143818       -9.04221450672431
C           -3.36431114902812        2.39263762217589       -8.49574978735283
C           -0.43884792004227        4.87841680171334       -6.74376283995291
C            0.30326775603066        4.58882116744824       -5.62227583016298
C            0.60033071107891        3.26400620203920       -5.30449099020516
C            2.03315941335047        4.67074807198810       -2.60903997491697
C            0.63200349343912        5.27342113290587       -2.30151438253996
C           -0.14909795067974        4.47989095243777       -1.26533574293842
C            2.85879041146574        5.45732419904541       -3.67625068971207
C            2.73679315408267        6.97214177469362       -3.62907406291417
C            2.82445042028064        4.58735547860030       -1.30882851756001
C            3.23373523382786        5.60971758514921       -0.48387001324504
C            3.93253134945538        5.32693653403285        0.68792429960872
N            4.38949795229822        6.38383868034736        1.53753619613269
C            3.69142659406232        7.63999845632582        1.56808292064427
C            4.39529429726024        8.84149925574579        1.61107361943113
C            3.72942987402913       10.04683758289019        1.62296982423214
C            2.34833187543273       10.07546079975475        1.59392420350385
C            1.63524085784096        8.89254134766335        1.55587321620638
C            2.29904521078324        7.68605327750391        1.54478808113231
C            5.59049182549485        6.22528024017121        2.31135582235284
C            5.67845042332221        6.74886641346736        3.59934050795220
C            6.82940530649934        6.60164899978211        4.34117830965814
C            7.91508588023052        5.93168592196382        3.81038794489131
C            7.84569702770690        5.41081279251716        2.53250878745479
C            6.69586448379637        5.55694268692116        1.78888994613689
C            4.18259481586424        3.99063875170266        1.00507665183607
C            3.76591199662368        2.96680060929096        0.18637405999628
C            3.07934884264225        3.24812820841637       -0.99448470409736
H            0.28081502792193       -0.26458837306807        0.88707702299509
H            0.49446020966040       -1.17922400725963       -0.60261051352013
H            0.36382545212580        0.56992957018394       -0.66204922119473
H            2.68304980458970       -0.96761988507726        0.64178504302311
H            2.52985149187256        0.76559094999432        0.59966025695521
H            4.88379642616562       -0.89987144122986       -0.52873182132835
H            4.87066871545325        0.83375909784190       -0.68003081610797
H            5.06361557702601       -1.10658978760638       -3.03764792171113
H            6.38484667516661       -0.13501789258762       -2.39696886192963
H            5.01309765271329        0.64195159869564       -3.18315362124773
H            3.36788665173034       -2.94692676259810       -0.82065066288404
H            2.66148531727929       -4.74578559925314       -2.36188489416142
H            1.57716465364254       -4.18019243785166       -4.48980194622978
H            1.18618062440746       -1.85822788554290       -5.10624999454440
H           -0.45160006829176       -0.91465706786026       -4.91670277555645
H           -1.24904765006844       -0.12287504647649       -6.24837693595145
H           -1.16218299277831        0.93758161223755       -3.37015757096531
H           -2.55380888389733        0.16682892753148       -4.12687723296986
H           -1.98206758659692        1.72898971812873       -4.70516845349656
H            2.20407898224375       -0.46992674084755       -6.05775956036902
H            2.23004394939045        0.98735633394315       -6.98065391201640
H            0.25863971343101       -1.32345609942642       -7.44901844620018
H            1.66523958867183       -0.96637915983879       -8.43741345714355
H            0.31539244529618        0.15371334078039       -8.40062436644738
H           -0.95063304354585        1.75935300977644       -7.91517820120582
H           -3.67953138726056        5.61724075731924       -9.75648094717151
H           -3.52929039917255        7.81388932977104      -10.85506161280408
H           -1.34336972830162        8.91486183719741      -11.10219805206027
H            0.68875519247349        7.81226499638439      -10.26266546460048
H            0.53294654864054        5.60861446703548       -9.18154135219318
H           -2.03218463126544        3.63734275479239      -11.32666086066914
H           -3.51835737676902        1.93773246917281      -12.30531981866038
H           -4.89720130586714        0.52329218669088      -10.83952043131050
H           -4.79960178768999        0.82070244326186       -8.39964683589175
H           -3.32310199602813        2.53223183013833       -7.42943055851591
H           -0.68615764007117        5.90028376133431       -6.97197416858248
H            0.65395043984202        5.39459932863983       -5.00847063386479
H            0.04439638716072        5.34317964319895       -3.21873200571905
H            0.76370536861260        6.30415324008379       -1.95475963905851
H           -0.31750874746366        3.45437235666996       -1.59944265303570
H           -1.12595798595867        4.92277944541405       -1.05819782070178
H            0.39245903387216        4.42302530310628       -0.31940506637615
H            2.59314303882562        5.09241526352591       -4.67342914208486
H            3.90954508084330        5.16439731584156       -3.56050478805498
H            1.70621685801681        7.29703708339391       -3.78097326085248
H            3.34028641248572        7.45074202279528       -4.40402169739301
H            3.06743595760830        7.37663571169694       -2.67267434576064
H            3.01355020204410        6.62955148128322       -0.73318111474774
H            5.47094370268280        8.81300934825916        1.62395428545312
H            4.28671597258448       10.96915503973205        1.65280764814385
H            1.82799542383673       11.01948626866685        1.60162356009897
H            0.55768056651484        8.91389093058615        1.53440064308728
H            1.74845130586326        6.76166404277499        1.52199509106368
H            4.82804577568226        7.26596942206644        4.00863282964275
H            6.88317749792201        7.00951458675994        5.33760231758179
H            8.81531768206086        5.81636311849842        4.39202412514461
H            8.69309419794588        4.89024124237214        2.11646881228945
H            6.64075003488730        5.16341668859405        0.78876527850152
H            4.70419968960961        3.76855579898532        1.91970668988965
H            3.97320730719494        1.95824572264670        0.47936993365573
