61
 energy: -12.820601657581 gnorm: 0.000755494762 xtb: 6.5.0 (97a52f5)
C            0.71491848710409        0.00816030909484       -0.56031419463606
C            1.95063261908676       -0.09180499699663        0.31848991437371
C            2.98690444613329       -1.17299392329766       -0.09493900820146
C            3.55111133007464       -0.90964579965317       -1.51488177156236
C            4.64026953985241       -1.88720648378768       -1.92575667113344
C            2.40936586894717       -2.59019443998309        0.01622727381060
C            1.42210332716239       -3.21980331960772       -0.71668982045605
C            1.09479665895382       -4.53099343746070       -0.42040063762830
C            1.75132668324328       -5.21422642902293        0.59058316155454
C            2.75381499195997       -4.60247672056125        1.31526820343240
C            3.08539842481757       -3.28651230152889        1.02250033162421
C            4.13421252856350       -2.42940614217977        1.58924480857630
C            5.07693788750645       -2.69207781432451        2.57355390216020
C            5.98552299900052       -1.70962809016775        2.90621128109626
C            5.97534696612153       -0.46440949299046        2.27186506808161
C            6.90324607868542        0.53199481337791        2.63416297946278
C            7.68569086917088        1.41373352827513        2.95910865298906
C            8.55120846599908        2.45353674672650        3.34171763720221
C            9.81878621357085        2.15175279526237        3.83553509331815
C           10.69417152017173        3.13722453023965        4.23013253247838
C           10.33745311708067        4.48529863472386        4.15052662088656
C           11.22072135722259        5.53320006792929        4.55901842034405
C           10.85379671210575        6.83180178027477        4.47711402247325
C            9.56726328852538        7.20769322210656        3.97661061241782
C            9.16362020433584        8.54094078379319        3.88269692786778
C            7.91483129731968        8.86772230526419        3.39511423929069
C            7.03633475273517        7.88395208919766        2.98962473771553
C            7.39045268534944        6.53548980067461        3.06377217593493
C            6.50633053926586        5.48801605431424        2.65533223598672
C            6.87246003388888        4.18983153696941        2.74181330777629
C            8.15661611197956        3.80542163042947        3.24238569875242
C            9.05640340846993        4.82167975203108        3.65115046149598
C            8.67048645481321        6.19184620125411        3.56293378999020
C            5.02698596500440       -0.21382420400847        1.28045417429850
C            4.11478031469276       -1.19167377956670        0.94407392990911
H            0.04919233117521        0.80984557263840       -0.23219583292223
H            0.13460585988622       -0.91462670032019       -0.54079641241295
H            0.97389200753474        0.21234007006962       -1.60001330312732
H            1.65405080739594       -0.29069287475074        1.35508446261194
H            2.46454609584922        0.87603768017459        0.34708865597882
H            3.93133812250164        0.11745686948801       -1.55381047925483
H            2.72671643153827       -0.94833216098642       -2.23469266991011
H            5.49122763445984       -1.84007185817917       -1.24410073024110
H            5.01424091571733       -1.68627215371561       -2.93208916850723
H            4.27388172101361       -2.91510537970459       -1.91030148976722
H            0.93421551289760       -2.70049364562122       -1.52253661019830
H            0.32421346054777       -5.02791177159852       -0.98698909847916
H            1.48325842221489       -6.23543926982162        0.80746348514406
H            3.28070527517127       -5.12866373269133        2.09182424373752
H            5.09091828089447       -3.65088842664072        3.06123470751368
H            6.72227453122353       -1.89451601537577        3.66927901211965
H           10.10880542411547        1.11714899544606        3.90734144704034
H           11.66724563115029        2.87602994764597        4.60911602100427
H           12.19208505957779        5.26731741020666        4.93895311075486
H           11.53055610869102        7.60772251245885        4.79087239959319
H            9.84162292665303        9.31575565577392        4.19693626063489
H            7.62223211484592        9.90314109826600        3.33065373344291
H            6.06426308696091        8.14907902228211        2.61072841893795
H            5.53535402707733        5.75378795380801        2.27440980523558
H            6.19262760658382        3.41641312741780        2.42985820549150
H            5.00855845537688        0.73827886697480        0.78186173404523
