85
 energy: -16.597303109642 gnorm: 0.000380256100 xtb: 6.5.0 (97a52f5)
C            3.75526699306181       -0.71672475180885        1.33257447369265
C            3.09302903070738        0.64932236105084        1.42894229940956
C            2.69943485646176        1.36637345585069        0.10732871379948
C            2.20288433879824        2.75003866481650        0.51267188714540
C            0.91537610464997        2.87074741714729        0.93007788164898
C            0.02992409693043        1.73257541279868        0.91789302772346
C            0.35603127012374        0.59890333720261        0.23753974901907
C           -0.12029309953847       -0.75103630156728        0.50560982350701
C           -1.06890659027102       -1.12609169069746        1.45636628137971
C           -1.26480654544694       -2.45668046524690        1.74261984496110
C           -0.52890836874524       -3.45520809145498        1.09484641746332
C           -0.62255174411181       -4.86762264316502        1.52018284923302
C           -1.83759101487203       -5.44079142961525        1.89205034694014
C           -1.89756100521679       -6.73458366289908        2.35436887391705
C           -0.74322347809715       -7.50522685998358        2.46210016256485
C           -0.74420916682815       -8.89115617703979        2.97662611385438
C           -1.97548570695620       -9.45126637611461        3.60805403244125
O            0.25086091080877       -9.57149689987962        2.88885995884656
C            0.46481572814567       -6.94252286670788        2.07615715361779
C            0.52757333862357       -5.64989166201768        1.61673646265217
C            0.38450524391501       -3.06980679498387        0.11028541527245
C            0.58226450933333       -1.74296240889117       -0.15549587126682
S            1.76634777110538       -1.06050822025862       -1.31377851610961
O            3.13602883812490       -1.64177865334166       -1.08579791590211
O            1.17400486055256       -1.21742343888468       -2.69643969235056
C            1.52853992373616        0.68320110561017       -0.71592322602079
C            1.15424873947314        1.52930980406591       -1.96383609270964
C           -0.23301466741989        1.26417295559440       -2.53817370098341
C           -1.16723428677056        2.00748179238484        1.79638933416714
F           -0.98963296437770        1.44756513357334        3.00098450712893
F           -2.29223482570918        1.57012315573318        1.21527252258832
C           -1.20976706697954        3.56286152338833        1.93678463282891
F           -1.55315957749943        3.90843828747225        3.17742286604797
F           -2.05272200415478        4.06516090129695        1.03165378728724
C            0.24484973926788        4.04095919233418        1.61435403907313
F            0.88125079275530        4.32789128764302        2.75840035933584
F            0.20881879110047        5.10324928458316        0.79905766496483
C            3.24111234029694        3.77055600146096        0.52277345577930
C            3.20430669274615        5.01281854794467        1.15578264470939
C            4.33466238366771        5.79498857404007        1.19602212633512
C            5.53026266017494        5.37289011135387        0.60452200354347
C            6.78358243602261        6.13910007508811        0.77599793291210
C            7.15619877265032        6.61131923625068        2.03375422117907
C            8.36235211346507        7.24085922664709        2.22570685227495
C            9.24309296083231        7.42315723437390        1.16391608749710
C           10.56598995503868        8.06298730268316        1.32454139076768
C           11.07959708006083        8.37676317070345        2.69136024935751
O           11.23343914657531        8.33033269809166        0.35321462332758
C            8.86499902236863        6.97269949836708       -0.09395776465019
C            7.66093189992023        6.33906388040277       -0.28798918919795
C            5.54153591034251        4.15045436160666       -0.07106444437515
C            4.41472440164230        3.37621694084704       -0.09378550594628
S            4.24047904975829        1.75632399960891       -0.84606326965564
O            3.92678462234403        1.92656181453389       -2.31006488070826
O            5.41661371808073        0.93071735780457       -0.39014800646714
H            4.15946292486376       -1.04476965807448        2.29255019841632
H            4.57436372360902       -0.70564386373628        0.61051690769975
H            3.05191153556472       -1.48129814598986        1.00334029144867
H            3.76738627978860        1.32707093710592        1.96832569610568
H            2.20170518455179        0.58100498228435        2.06433154880334
H           -1.60682632108141       -0.36398614589910        1.99235453254924
H           -1.95745686288765       -2.73737465821545        2.51721864674329
H           -2.73944978938594       -4.85901142865746        1.80776537365925
H           -2.84720454976788       -7.15601019951616        2.63500227981355
H           -2.36210752909980       -8.78570701442520        4.37979250539641
H           -1.74301591747831      -10.40711177465638        4.07686344237349
H           -2.75400631779953       -9.62322844633844        2.86526691082572
H            1.35752479657395       -7.54092019010540        2.15696223568439
H            1.47975566826148       -5.22058988811823        1.35644086272424
H            0.95914395055231       -3.80887104984562       -0.41953497397223
H            1.91968304372409        1.36150265497784       -2.73227242773734
H            1.23352568031335        2.59204296706782       -1.70565027764058
H           -0.43902118583638        1.89146242797956       -3.40782958714480
H           -1.01160409257390        1.46212015589646       -1.79941072496800
H           -0.33729219432743        0.22472493140374       -2.85307231369263
H            2.29898158762873        5.33105700225340        1.64132162732532
H            4.31146880257442        6.74400458440412        1.70387928954259
H            6.49800754484950        6.44625041742143        2.86968825228661
H            8.63038855213107        7.58854571921559        3.20834350814980
H           10.50472775811218        9.17939759159237        3.15271629226129
H           12.11722365338499        8.70299308268771        2.62673849260949
H           11.04511762790388        7.49980627831544        3.33785908696543
H            9.54545044931439        7.12236781226173       -0.91602213496963
H            7.38575176327184        5.98987884240611       -1.26852019123172
H            6.44752530258944        3.78698636666648       -0.52314034393722
