75
 energy: -14.257496281029 gnorm: 0.000215318581 xtb: 6.5.0 (97a52f5)
C            0.63759013156731       -0.90392777730443       -1.84441215400299
C            2.05401352013115       -1.37803311051263       -1.54695662009754
C            2.45911620610339       -1.42487242748249       -0.05688329719328
C            1.59705286888230       -2.43225485116742        0.68217512399887
C            0.45534101760698       -2.01198461806019        1.28432779087835
C            0.08271828730845       -0.62345444734683        1.30143969117169
C            0.94813607683522        0.34659753818408        0.90655685702826
C            0.62292521596838        1.72721148078019        0.57270244980942
C           -0.59646745133503        2.37960074043380        0.75576629192062
C           -0.76443653332833        3.67010582976498        0.31243132864401
C            0.27146511668197        4.35811610740602       -0.32991429716844
C            0.09851523123462        5.70511294488529       -0.85577991586218
C           -1.00146259814277        6.50472622849633       -0.74618118450386
C           -0.86914029481574        7.76197153496880       -1.39355392022177
C            0.32734339858173        7.94778856677898       -2.00373943086012
C            0.73432533056066        9.14740567623519       -2.75945986697338
S            1.32356391488717        6.54637913303291       -1.76771519113716
C            1.49061383745677        3.69849048424730       -0.49927261397086
C            1.64331643095841        2.41354737197451       -0.05929727036903
S            3.11012912477512        1.40403218386816       -0.24149283722509
O            3.29342784489512        1.14553735172322       -1.71531596474289
O            4.23197369761654        2.03149349841509        0.55178912207068
C            2.40007974750465       -0.03357688284638        0.69476656112271
C            3.11845813537798       -0.09621670949439        2.06521895874600
C            2.83900806381373        1.07467261254814        2.99901902633496
C           -1.35297368255766       -0.47766195395013        1.74999306945705
F           -2.13272470887487       -0.21465983753521        0.69143154580242
F           -1.46109248531963        0.47485989038411        2.68669698298826
C           -1.74417837104051       -1.85818617393904        2.36926000216155
F           -2.94658356240261       -2.23560411329205        1.93295507243798
F           -1.70933592360267       -1.77548245661797        3.70149459318589
C           -0.64673368526530       -2.85878895972664        1.88089285961680
F           -1.16562622994923       -3.65864537657665        0.93792177658132
F           -0.18181012638439       -3.56813574373028        2.91875172740786
C            2.10875910376785       -3.79622545199831        0.63022796669515
C            1.41830825809902       -4.97669063733598        0.90554135945008
C            2.03731940289886       -6.19276918433380        0.73796176851357
C            3.36099986046542       -6.27867708436423        0.29016988226773
C            4.01571823020950       -7.55709712338259        0.04996498386934
C            3.51522211414713       -8.80530667096727        0.28017986873922
C            4.39550083835217       -9.85801037393910       -0.08707362273474
C            5.57917587346964       -9.43797138982685       -0.59827288696338
C            6.67227725379065      -10.30728894599457       -1.07270647961459
S            5.61850057684379       -7.70310693039628       -0.61888324292074
C            4.04822036709119       -5.08900165034589        0.03743044986650
C            3.42255473970203       -3.88582100229154        0.20873819466158
S            4.11986253842029       -2.25574720367532       -0.06641809000617
O            4.96751633917932       -1.91119179222666        1.13286540534813
O            4.72804131985855       -2.22481471365384       -1.44857419724974
H            0.40811747696148       -0.95917779105133       -2.91048209031868
H            0.49117261238599        0.13231096099825       -1.53988537006855
H           -0.10274028688297       -1.50906571553671       -1.31859175049346
H            2.78225841501558       -0.75862020656353       -2.08512999525224
H            2.18774043560352       -2.38674970184467       -1.95900634617364
H           -1.40565978669233        1.86027143355965        1.23591532154095
H           -1.71466836734049        4.15499960596557        0.44896595506561
H           -1.89877174717608        6.21408456993273       -0.22250919391463
H           -1.65329088085708        8.50435992788855       -1.40711733796050
H            0.10531651272173        9.28206139654182       -3.64046959929414
H            1.76879352945959        9.06015373079005       -3.09405243662948
H            0.65385990596387       10.04230426461961       -2.14117415530282
H            2.30529880472448        4.19202599627078       -0.99834496262442
H            4.19750743270169       -0.17206680489594        1.88319367021761
H            2.83566603438008       -1.03258471529238        2.56116471375655
H            3.15679743527143        2.01776410468280        2.55131413858227
H            3.36589905761602        0.97040137125681        3.94956164198117
H            1.77414490813777        1.15821304157775        3.22253278429290
H            0.39295655055118       -4.92463309126810        1.22439397027741
H            1.48842920579431       -7.09578176504210        0.93799992385213
H            2.53654384807669       -8.98666158665999        0.69638047461383
H            4.14447155745865      -10.90264204080102        0.02259534588610
H            6.35589687728634      -10.88870625408163       -1.93975360058020
H            6.98492877650488      -11.00070908505552       -0.29101280831118
H            7.53950389469039       -9.71306484111274       -1.36340511880553
H            5.06646343567759       -5.11707038469640       -0.30702080108453
