83
 energy: -15.955795456054 gnorm: 0.000429644879 xtb: 6.5.0 (97a52f5)
C           -0.30813797766342       -0.29467964361106        1.89645814245874
C            0.84678372318177       -0.32303477202358        0.90463247224052
C            2.13651160168714        0.40183022797047        1.36302840794483
C            1.80292668202290        1.78101896154622        1.90572608785092
C            1.65616954174359        2.80552273501550        1.02840770298255
C            1.88147061476327        2.61107227416349       -0.38072311706214
C            2.48853711660208        1.48687620689772       -0.84809827197247
C            2.38690084341210        0.94237896475284       -2.19664949209018
C            1.79753429516585        1.54841023551888       -3.30604631696616
C            1.62243750933713        0.83493983187752       -4.46895444467131
C            2.02915756318822       -0.49906521256186       -4.56874139862702
C            1.70964416114431       -1.30989191976201       -5.76395035824776
C            1.86115118015242       -0.80419227305947       -7.05210604533604
C            1.51522284684772       -1.55981319252288       -8.15035404352910
C            1.00797688097607       -2.84059835743968       -7.99626032548712
C            0.60729862332871       -3.67537734409760       -9.17424107649644
O            1.17307485619517       -4.96957366876837       -9.16123841732580
C            0.85887487684018       -3.34988585518359       -6.71989681860477
C            1.20361008782162       -2.59951473144184       -5.61956976341716
C            2.65584439942180       -1.08385898224966       -3.46707526020684
C            2.80956849930575       -0.36905809369063       -2.31163390807060
S            3.50342453434396       -0.98411677540540       -0.78102386173448
O            2.66378295287953       -2.15566489210735       -0.33916509915837
O            4.99225738918499       -1.16210626860665       -0.96141411832399
C            3.15324022726429        0.57403544705604        0.16507911550412
C            4.50212015613034        1.17545328852659        0.62670170095392
C            5.38800743953955        1.70122852481124       -0.49560012633991
C            1.29117765451936        3.76555260008108       -1.15713032882245
F            0.10358010379415        3.41168349103318       -1.66858088795247
F            2.13469307752720        4.17336392169373       -2.11524851052688
C            1.09706587423763        4.90704030672791       -0.10710705750639
F           -0.06561668171976        5.52821077994635       -0.30663712542297
F            2.12734030196585        5.75343757304284       -0.17737920065453
C            1.10638796943073        4.19119213306279        1.28395038265804
F           -0.14848091482229        4.10445541258581        1.74828788826761
F            1.89537013089242        4.85926533067881        2.13651343918758
C            1.60999337340818        1.81738859784144        3.34982652665067
C            0.99362888645208        2.81896509131789        4.09932179677143
C            0.76462880170543        2.62869387334140        5.44207172948077
C            1.14525287801386        1.44501043430990        6.08157931200253
C            0.77331440614343        1.17942804176737        7.48876496792851
C           -0.52338533883845        1.42280074771973        7.93499473142420
C           -0.90062933575149        1.10121907112078        9.21880887742208
C            0.00501196268059        0.52735311444514       10.09632376574372
C           -0.39509177497653        0.13842491655407       11.48697315028290
O           -0.09807117046251       -1.20748551671572       11.79728371704946
C            1.29800726660627        0.29422441118381        9.66385313736228
C            1.68003222701265        0.61204980432888        8.37988935595963
C            1.80611254654482        0.46911245004074        5.33373029256722
C            2.01801706994137        0.66513989358885        3.99705378730619
S            2.78478754004636       -0.48748494856461        2.85554835030499
O            4.28263951551011       -0.36837608866344        2.96984577313728
O            2.09781806303261       -1.81795206374297        3.04888440996990
H           -1.18850449391346       -0.81095246947184        1.50877160157957
H           -0.60570676334822        0.72913516623498        2.12840556786918
H           -0.03293635905800       -0.78040955872557        2.83397205773519
H            0.51884183924876        0.12052422902519       -0.04289281147672
H            1.10325420533271       -1.36396529201311        0.67477693666708
H            1.45224227569340        2.56393913978325       -3.23056141212075
H            1.12279151591860        1.29153438710394       -5.30588814255464
H            2.25971340157972        0.18702025579643       -7.18349073326366
H            1.63393412500970       -1.15505357280382       -9.14099553464046
H            0.87111199312941       -3.18542960488646      -10.11964695693809
H           -0.48109305510250       -3.81092561496298       -9.18032984067120
H            2.14565099902393       -4.92312272141743       -9.13607575960785
H            0.46665577602818       -4.34584806149502       -6.59922106961454
H            1.05982351572628       -2.99938638205016       -4.63046762447949
H            2.98664367344259       -2.10657516549330       -3.50888813912228
H            5.04081881997900        0.41183201194067        1.20087365763842
H            4.29683187056286        1.98631979794627        1.33570489927101
H            5.64904080318577        0.90545721958730       -1.19506995619921
H            6.32090397101696        2.12095116028445       -0.11417544529456
H            4.88394703067758        2.48485324499438       -1.06366521127850
H            0.66916978925051        3.71996148703709        3.61043174323594
H            0.27038179683591        3.39423706928146        6.01519075341832
H           -1.24311391348995        1.83921390061082        7.25117082068058
H           -1.91076999016167        1.28296300961406        9.54449784858139
H           -1.46612923853569        0.30754954552863       11.65547229299700
H            0.14289332914507        0.75488227640183       12.21712325390233
H           -0.52850633671449       -1.81243662061973       11.16653322567108
H            1.99971380270288       -0.15775394479790       10.34464324022632
H            2.68795553698650        0.42165250479541        8.05335450048531
H            2.09947502204079       -0.45970549147039        5.79002259032522
