41
 energy: -7.736360221984 gnorm: 0.000627633279 xtb: 6.5.0 (97a52f5)
C            4.49589840729228        1.62801407160775        1.29990315984623
C            5.26740198194849        0.65009906641732        0.42773663127346
C            5.41060596575704       -0.69490773479534        1.06248591530696
C            4.59340096083079       -1.76212428181874        0.88273200372819
C            3.42364957796328       -1.84647013784733       -0.01673760369732
C            5.05320377165463       -2.86204049436555        1.73188961458565
O            4.54073396193448       -3.96515669438074        1.78646490303677
N            6.17059755424218       -2.37978496581396        2.43871124584046
C            6.40743431840147       -1.05392293524977        2.04408990067424
C            7.43177442104898       -0.31860103407593        2.55789752691922
C            8.26122745406670       -0.94567653565612        3.51902287283449
C            9.37517289857239       -0.45845315585264        4.20077255636516
C            9.98255001704964        0.88368032959607        4.02147370146231
C            9.84040119571927       -1.49980821437730        5.02554234945263
C           11.06374809095210       -1.45855194648189        5.88782948464452
C           12.33942547630418       -1.72977669429889        5.10611499742313
C            9.01598498649332       -2.59914516219584        4.84209886283050
C            9.14994324331872       -3.91531866974073        5.49841231730853
N            8.04542067779144       -2.25985118764228        3.92233328063184
C            6.97480712017569       -3.03932860572422        3.38739071678850
O            6.79051417799395       -4.18491796712095        3.73884264190302
H            4.38558565371775        2.60437746087810        0.82408291979159
H            4.99784155319036        1.78073716682758        2.25645710816433
H            3.49578071623127        1.25176277254918        1.51973034358027
H            6.26496441075712        1.04505818619872        0.20051896530486
H            4.77498183075822        0.53696911020212       -0.54550753808331
H            2.70357053325345       -1.05798119480371        0.20305617401242
H            2.91853770494107       -2.80556130080614        0.10142111497265
H            3.72653148148944       -1.75263844971333       -1.05986414941293
H            7.60889148915747        0.69318865251686        2.24704140206275
H            9.21327849500439        1.65460015255403        3.97179950860426
H           10.56247372063745        0.92482054824955        3.09916779775718
H           10.64696444175010        1.13411449331316        4.84796272298641
H           10.95433136982377       -2.18706985291231        6.70014346454922
H           11.11896074839592       -0.48368212829195        6.38660308047059
H           12.30789437564094       -2.71269038278798        4.63372540950549
H           13.22619939334767       -1.69563602309217        5.74208116801006
H           12.47533272978550       -0.99653709557942        4.30984380575343
H            9.05941741617607       -3.82222376996209        6.58066149741333
H           10.11512574953947       -4.36806280575342        5.27155804590887
H            8.37079992688996       -4.59435258977077        5.15364007949017
