47
 energy: -8.818233624380 gnorm: 0.000568530873 xtb: 6.5.0 (97a52f5)
C            4.61356100189151        2.24387305598075       -0.60869355375940
C            5.23814305166046        0.89821090774910       -0.27237342250300
C            5.28002152728124        0.63597282668934        1.19808823921829
C            4.34838847762480       -0.02970197789594        1.92485336586816
C            3.12545524219880       -0.68846595551641        1.42045900041260
C            4.74078947077815       -0.00888289194567        3.33447599055140
O            4.12076703318081       -0.53169356335543        4.24166519992760
N            5.94137715829856        0.71995513193979        3.40316229988552
C            6.29119293209531        1.12483752099366        2.10620814997680
C            7.41342584447131        1.85376301657808        1.85474504657766
C            8.22538018630765        2.19647457228161        2.96288363077750
C            9.42199076854074        2.90850027094703        3.01688325258616
C           10.15808252095801        3.45399840682101        1.84971697804171
C            9.81468054119403        2.94999089225086        4.36757876054955
C           11.07652023588812        3.55256467373779        4.89790298115244
C           12.27319657806846        2.61998869406622        4.76928944994754
C           13.52905433815367        3.24278692551730        5.30935362932091
O           13.65940119055604        3.38570848680006        6.50550327566385
O           14.44802460757634        3.62564679566665        4.37514570592144
C           15.56228031846022        4.18983122262467        4.99630677566027
C            8.87018429367220        2.26489773412785        5.11540272386333
C            8.89497350018994        2.04208563783821        6.57476691832113
N            7.89485271881466        1.80593801375516        4.25602545091784
C            6.72335220744771        1.03836182297219        4.52815669955000
O            6.44233518496257        0.69556482192139        5.65582940318349
H            4.58300184636476        2.42446702393789       -1.68481736208125
H            5.17291631105093        3.06102077222749       -0.15113804638931
H            3.59121779595897        2.30592906141267       -0.23345292197944
H            6.25688913368087        0.83893037688496       -0.67371221068745
H            4.68778658082075        0.08850067006996       -0.76590244479074
H            2.49478422405899        0.01786332856156        0.88043711372326
H            2.54328756696593       -1.09567146971152        2.24773262002043
H            3.37428925752475       -1.51003123187916        0.74847204014182
H            7.67708949542753        2.15694711377369        0.85962948457473
H            9.48172965876275        3.98248849680663        1.17768582300695
H           10.63635652572348        2.65213719756336        1.28692638756109
H           10.93243649935148        4.15554750348840        2.15818406276809
H           10.93913898708158        3.82918494663004        5.94881049554714
H           11.28130913087084        4.49514600818488        4.37932886164579
H           12.43086720888252        2.34888821375941        3.72133938851360
H           12.08096529444994        1.68379139243642        5.30119770124784
H           16.28364696616570        4.48783754903971        4.23229691369276
H           16.01286357867518        3.45197949378038        5.66403373137926
H           15.24925923580149        5.06380429704955        5.57203056268725
H            8.83570782001521        2.98739706516778        7.11402054048258
H            9.80908897408589        1.53070123628821        6.87593450763369
H            8.04854697800534        1.42732391197729        6.88001679969445
