35
 energy: -6.842375254650 gnorm: 0.000712935063 xtb: 6.5.0 (97a52f5)
C            4.23216213336825        1.77586986115836       -0.49512292035512
C            5.13537051325707        0.58493542775442       -0.21575392417863
C            5.31653487527286        0.33020988207471        1.24546591948772
C            4.57345025402814       -0.50029973032115        2.01829139925144
C            3.45361413606181       -1.36068075393620        1.58251925363410
C            5.04646249978793       -0.41439272019585        3.40058949671310
O            4.58827561853589       -1.04300642942984        4.33688629703905
N            6.09882219867833        0.51903362339852        3.40456998856325
C            6.27794322933313        0.99288972685709        2.09575276572974
C            7.22044469787746        1.92594742145172        1.78667613212784
C            8.02812343316111        2.40541536354296        2.84585610842903
C            9.06323399388863        3.34049846752177        2.84239254316357
C            9.58164273292255        4.07921157494433        1.66515448886225
C            9.52769393708212        3.43437334630091        4.15871670922233
C            8.79350605269310        2.58195767092416        4.95384749546337
C            8.95765017201864        2.38696788453645        6.40796153585801
N            7.86698739238556        1.94639884663726        4.15159581167941
C            6.87786743685207        0.97302437245145        4.48513262085071
O            6.73742688381691        0.58148323656311        5.62360873622029
H            4.11485507054662        1.95948610941571       -1.56483813364096
H            4.63276928675852        2.68533437257359       -0.04504933795657
H            3.23752872110149        1.62100121192756       -0.07477818015027
H            6.11986685029395        0.73629034210144       -0.67457319533118
H            4.73375240400382       -0.31801072206943       -0.69078503824972
H            2.63845410981147       -0.76339846479450        1.17447918437391
H            3.06208681957163       -1.93306512158410        2.42370312266510
H            3.77762514695784       -2.06661218194550        0.81799893945636
H            7.35029301578181        2.28562127665419        0.78392990557741
H            8.77049825400208        4.56837112551117        1.12536857366561
H           10.08873701215509        3.40297167979953        0.97659767263604
H           10.29327819866216        4.84776069641722        1.96764839420296
H           10.32510279969527        4.07331258019185        4.49781373502375
H            9.98176371438912        2.10216027271037        6.64918528185690
H            8.29409593772241        1.59964214356114        6.76474157113087
H            8.71941046752661        3.30126760729667        6.95137704697997
