44
 energy: -8.371326620642 gnorm: 0.000700519697 xtb: 6.5.0 (97a52f5)
C            4.42424138826847       -1.59494014680241       -1.59222849100041
C            5.10279408635288       -0.67074698157221       -0.59265785764268
C            5.18143471842990        0.74121636132735       -1.07554113363028
C            4.29323875730970        1.73313894448671       -0.81736324666804
C            3.08797795124370        1.65560284037349        0.03441710499546
C            4.71653791285028        2.94506320462447       -1.51876891759326
O            4.13675652405401        4.01414047869065       -1.48444966706038
N            5.89078065802149        2.61229975625057       -2.21626537727249
C            6.19282182415901        1.26601848895090       -1.96325692286834
C            7.27858371254070        0.65455130700512       -2.51175662609401
C            8.10511043350706        1.43570608482554       -3.35478451219457
C            9.26690025032781        1.09829040062345       -4.04541244919829
C            9.95172888189316       -0.22934959154605       -4.02380953143971
C           10.86814595312086       -0.40601205761583       -2.81977772683869
C           11.61728410341458       -1.71046539037210       -2.87988259065692
O           12.48328230931399       -1.82953035060183       -3.72093743007916
O           11.27057324727771       -2.68788308013474       -1.99923763967731
C            9.70376193632861        2.25638885602648       -4.71343259077518
C           10.90512445008090        2.35442508291222       -5.58075085801523
C            8.79732848287373        3.27234278764679       -4.45320039880372
C            8.85184983129977        4.65700383138389       -4.96313528448394
N            7.82285295850392        2.77188144281423       -3.61597356477334
C            6.68480733061497        3.41934596087563       -3.05031996257244
O            6.43901825060271        4.58214188150210       -3.28507605024581
H            4.36915899510130       -2.62272399499319       -1.22833692799952
H            4.96108341244668       -1.60820516326465       -2.54182631931734
H            3.40671019877158       -1.26388573846529       -1.80438125668720
H            6.11533619413584       -1.02732077599837       -0.36896960318496
H            4.57324529191804       -0.69286001994638        0.36712178338066
H            2.43381209166641        0.84366744444602       -0.28376584783137
H            2.52125079133979        2.58559731590294       -0.02237417447244
H            3.35757141612006        1.49034698009443        1.07780367837508
H            7.50153130103697       -0.37639205320402       -2.31556624091182
H           10.53179362146632       -0.35577916178698       -4.94432316357087
H            9.20245082358665       -1.02801648407851       -4.04407931162088
H           10.29354584560635       -0.33411202340205       -1.89262241115282
H           11.59360206959541        0.41181895502156       -2.78375568139987
H           10.55127419419261       -2.40439959788100       -1.40345005885786
H           10.70683840927983        1.93009717881108       -6.56520509607774
H           11.74748416514426        1.81805260833500       -5.14364796235866
H           11.21040594135018        3.39181283060996       -5.71656034540937
H            9.73035933164583        5.17799474659164       -4.58259589743216
H            7.96897119982714        5.21270640440534       -4.64748158097936
H            8.88664875338649        4.67054043712534       -6.05251185790669
