41
 energy: -7.865909449482 gnorm: 0.000820097732 xtb: 6.5.0 (97a52f5)
C            4.71473748101353       -2.15210109535926        0.34984808307697
C            5.28096455871371       -0.76630600701954        0.07944676988817
C            5.25762872231265       -0.40846199560491       -1.37102037307120
C            4.28337594548034        0.27633797472868       -2.01893233019359
C            3.05340205874580        0.85198681671941       -1.43571480334799
C            4.62417080928625        0.35730415892422       -3.43940381318904
O            3.95638293230358        0.91229182539651       -4.29032775973121
N            5.84495387761611       -0.32462880583129       -3.59691235004421
C            6.24947512024910       -0.80502438335964       -2.34303553391125
C            7.40168692079107       -1.52135041460435       -2.16995890355093
C            8.19531729470555       -1.76566498742470       -3.31096102084148
C            7.82059660680470       -1.29250366053958       -4.57564558614177
C            8.80901776069178       -1.67206277680707       -5.49452207226125
C            8.82996247246572       -1.32847114323949       -6.93286891473436
C            9.78573386976095       -2.36066321778133       -4.78475092238489
C           11.03201037899132       -2.91458460184777       -5.34937378429291
O           11.22541863953171       -2.87648364033780       -6.55112674489583
O           11.92123019508715       -3.44974668713011       -4.45771243963097
C           13.05197484238142       -3.92088124863767       -5.12371233111843
N            9.39981702296168       -2.42854977310266       -3.45378399448915
C           10.15380476378722       -3.03604206207384       -2.36363875583170
C            6.59108687710391       -0.53498394679393       -4.77467846140879
O            6.25660717550965       -0.12984470839037       -5.87422013998036
H            4.74504589208363       -2.40729456056244        1.41092608801103
H            5.27474486780508       -2.91612131764781       -0.19138393525857
H            3.67693872526564       -2.22210501723897        0.02079443602532
H            6.31211573250644       -0.69680022809742        0.44609764985577
H            4.72411182488738       -0.01054954892153        0.64573031997800
H            2.41533826302613        0.07060359295612       -1.02299184146499
H            2.48417029485578        1.38423076929951       -2.19841861070912
H            3.29089113264724        1.55898234636817       -0.64075264712513
H            7.69949384564065       -1.87838451370204       -1.20318580474526
H            7.81712134031515       -1.17860880140671       -7.30813025798631
H            9.30013911745353       -2.12359400454636       -7.51214777649277
H            9.39283510604250       -0.41018965735292       -7.09940301868606
H           13.74592571678708       -4.34341472281478       -4.39387995032071
H           13.52615078167335       -3.09064464371406       -5.65193284587532
H           12.75154986198224       -4.68918556265061       -5.83983812706783
H           10.75786296137139       -3.85574167458626       -2.74529708326398
H            9.47754794920481       -3.42625371750245       -1.60698486196345
H           10.80935026015733       -2.29478435776780       -1.91261555081974
