59
 energy: -10.576681201620 gnorm: 0.000769921785 xtb: 6.5.0 (97a52f5)
C            5.49132211369221       -1.55274708048254        0.71718084615751
C            5.69706893003016       -0.14523538604868        0.18021417546469
C            5.44697452218398       -0.04773749866489       -1.28964635486750
C            4.28334482987228        0.30575783564502       -1.88826869668023
C            3.02634301174289        0.70918941459554       -1.22353807911592
C            4.45106936515885        0.22176549940905       -3.33974497515494
O            3.59094426303797        0.48086587152799       -4.16041166302856
N            5.77216612598497       -0.21264996733630       -3.56580823881483
C            6.39674978312766       -0.39037921312421       -2.32216158845210
C            7.68831449596160       -0.82522450185629       -2.20688371607290
C            8.39562739235189       -1.09314222242850       -3.39828459023561
C            7.80078159447828       -0.92313568675685       -4.65549624017624
C            8.73954647370864       -1.28447007724844       -5.63262098207840
C            8.53278468825797       -1.22193160852564       -7.09605293634563
C            9.90226843221487       -1.66046563548591       -4.96853457506073
C           11.14583378372435       -2.12615612699226       -5.61913017325007
O           11.14108796158513       -2.39317129056092       -6.80872757208311
O           12.25905977517026       -2.22721854792835       -4.82641824879214
C           13.36373874463081       -2.64510362971673       -5.59470659007743
C           14.66841554988471       -2.67266534176429       -4.78929183328154
C           14.55070924241541       -3.64146679945782       -3.61811731738061
C           15.85966414395273       -3.01671552772489       -5.68303453986286
N            9.68686833537560       -1.54123707219620       -3.60210333700535
C           10.60299372202697       -1.92376605757103       -2.52160206564995
C           10.28432027942025       -3.31589703121038       -1.96762246953752
C           10.40774129127793       -4.37557931426223       -3.06073230743020
C           11.16651541269034       -3.64868389350451       -0.76375244792876
C            6.42359391103400       -0.46099848141589       -4.79314111609752
O            5.90004525901416       -0.31308227813249       -5.88452343028689
H            5.67645688725302       -1.61329914066249        1.79136654456674
H            6.15936456477854       -2.26140236106973        0.22556553132715
H            4.47161032450820       -1.89598385424134        0.53696519603441
H            6.71671916767248        0.19942661695535        0.39104549857299
H            5.04169149174802        0.56147572072937        0.70326066431975
H            2.65578842923159       -0.08449575857564       -0.57450936037019
H            2.25547556848587        0.92717014201871       -1.96340820874830
H            3.17422533186854        1.60488499688871       -0.61973439241161
H            8.14977449367722       -0.95986920338295       -1.24772405790558
H            7.47060148880001       -1.25464905065056       -7.33922860441463
H            9.02413661910491       -2.05962838484085       -7.59122430283898
H            8.94611078979908       -0.29963898221296       -7.50387883026479
H           13.44747446265448       -1.96702128701488       -6.45280057201959
H           13.13620537657622       -3.64121344118223       -5.99079617733705
H           14.81598516458533       -1.65732631414876       -4.38174482886080
H           14.38559319444606       -4.65801426831787       -3.97435645096515
H           13.71154533834695       -3.37802418238596       -2.97517549860199
H           15.45494029361491       -3.64653471400562       -3.00845778400630
H           15.74043370668125       -4.00951316716471       -6.11614431827017
H           16.79397441238821       -3.01259736855203       -5.12093136489496
H           15.96014010608212       -2.30842999714338       -6.50598894280047
H           10.54460436719725       -1.16818174490224       -1.73431877067059
H           11.62461305971386       -1.89277594719273       -2.90240110567223
H            9.23256466017506       -3.29895011297772       -1.63136224913930
H           11.42423592840069       -4.40687038313552       -3.45136800855496
H            9.74421834924233       -4.16017500007495       -3.89870768022060
H           10.16550748932136       -5.37025906395384       -2.68532039170550
H           12.21701461301391       -3.67455495827598       -1.05078284099296
H           10.91649758296829       -4.62348416003833       -0.34386461655582
H           11.05996330367334       -2.90566298128978        0.02725698653195
