60
 energy: -10.883183231814 gnorm: 0.000583502851 xtb: 6.5.0 (97a52f5)
C            2.69887038231219       -1.05043872739219       -0.32298873373625
C            1.88387377354393       -0.04787154385479       -1.12536534505989
C            2.50260337318322        1.31504210121357       -1.13785300223638
C            3.55553126786143        1.73653673624394       -1.96387992404586
C            4.08664108714542        0.94186333256487       -3.10267610173952
C            3.88073301372641        3.07386018385398       -1.59788789198257
C            4.87670735600143        3.98426333443535       -2.06190872456122
C            6.05749536108014        3.54808455325662       -2.75140790447980
C            6.62403599836765        2.32942567331619       -2.59855231700696
S            8.03151366721084        1.84036633355434       -3.45061609718773
C            8.11406313593343        0.17463379950997       -2.84147966304630
C            8.01965423624448       -0.89097312568163       -3.72468508100289
C            8.06346838867409       -2.18802025323333       -3.25827985740393
C            8.20459234407305       -2.43153080946887       -1.90532617737741
C            8.30415906837830       -1.37566390624670       -1.01946307438121
C            8.26093155050558       -0.07843541680038       -1.48504644493514
C            4.69947834383016        5.34812530496539       -1.69088627453397
C            5.41416395997733        6.52980623266665       -2.02652842741941
C            6.55078736208297        6.65626294508844       -2.97255645098673
C            4.84423332605392        7.59049287947862       -1.30489159048756
C            5.24772102184307        9.03025081638151       -1.37232757867343
C            4.61573433037511        9.76148541368986       -2.54649570996911
C            3.78184716913089        7.08345897230659       -0.53252421850541
C            2.91591905230449        7.82008098444181        0.40708950594536
N            3.72919912526746        5.76284505568499       -0.78129540386359
B            2.77005899853025        4.82018271631073       -0.04376677558975
F            1.46165236923556        5.23966805167591       -0.25941774698616
F            3.08480615965934        4.80886149227877        1.30963243607264
N            2.94686250030321        3.41064764382937       -0.62046113161572
C            2.13936143341180        2.38448937696957       -0.29740686436369
C            1.06282470818967        2.41913137179131        0.70980639937309
H            2.23742098651241       -2.03998626013364       -0.31103163280471
H            2.81048280309012       -0.72516569768680        0.71238047201095
H            3.70347951108051       -1.15924208586098       -0.73410418771543
H            0.86632004246771        0.02474481060135       -0.72258553242612
H            1.75743373192858       -0.39627528248529       -2.15726185007885
H            3.27502582067881        0.47284162566850       -3.65904200786659
H            4.75214414853416        0.15024988852352       -2.75769395825057
H            4.63074061200639        1.57068903767886       -3.80699755488530
H            6.57157975906505        4.24454862796644       -3.38842873055344
H            6.20224063722239        1.62978245845883       -1.90528884012249
H            7.90482142858217       -0.68937538369822       -4.77650255284828
H            7.98691554285900       -3.01142470148184       -3.94921753526720
H            8.23856851103982       -3.44527760851414       -1.54116218533760
H            8.41586750073767       -1.56568481292756        0.03537452387326
H            8.34099575367845        0.75085241386355       -0.80253394094893
H            7.41967797786747        6.10238078721702       -2.61572795455428
H            6.85541866781794        7.69570598711737       -3.09130139323111
H            6.27851251846261        6.28724109266107       -3.96180079388122
H            6.34131038704524        9.09684106313353       -1.41902619336393
H            4.97473243811145        9.52067701004813       -0.42985640282123
H            4.89720877322186        9.30163677380540       -3.49497249855538
H            4.91452833655651       10.81098222526696       -2.58598500837249
H            3.52661150529356        9.72968430956053       -2.48740011847470
H            2.42696724808505        8.65982579386554       -0.08684265397774
H            3.49273274760923        8.20458430617858        1.24847828437874
H            2.14155546937275        7.16341322638525        0.80376769419059
H            1.07785946989301        3.36815778946917        1.24660278747750
H            1.18165185228732        1.61646937783587        1.43815230452154
H            0.08504195439403        2.31512170469229        0.23871363169840
