63
 energy: -11.421546509789 gnorm: 0.000921937811 xtb: 6.5.0 (97a52f5)
C            1.68458353755354       -1.03920659248862        0.19141932554192
C            2.74726308646896        0.04143081484307        0.31352105497944
C            3.01967809978214        0.72947489224496       -0.98768700573341
C            3.84696052793890        0.26188169649251       -2.01447786144485
C            4.71900482280902       -0.93640878799763       -1.90829148135747
C            3.77083007919706        1.19610027054195       -3.08873747047981
C            4.38571220108871        1.23006122401003       -4.37244983607131
C            4.98455517112787        0.06626553620590       -4.97878901381510
C            4.50087894260834       -1.19821806278715       -4.84616232017782
C            5.06458668002709       -2.37717336060283       -5.42074582095143
C            4.42124189094156       -3.61723757082968       -5.23258727429105
C            4.93167368416295       -4.76410699294887       -5.75943069959443
C            6.12879395431610       -4.75861878123942       -6.51679044892559
O            6.57301958338469       -5.95288688167429       -7.01366137670232
C            7.77339975954890       -5.87665051761998       -7.75231939738923
C            6.77459101616672       -3.51060395122269       -6.70039865799159
C            6.25857884548752       -2.36555025374927       -6.17120801544270
C            4.30244937483799        2.46427180195885       -5.07367911585098
C            4.84236473145344        2.89045890469718       -6.32006802935391
C            5.73857899616489        2.12055394626060       -7.21865427503001
C            4.39205421465623        4.19547237613309       -6.55196124140761
C            4.75727986585651        5.07171820398299       -7.70910347594726
C            6.10015064697787        5.76029043114920       -7.52094477268892
C            3.57688193187267        4.58493604341481       -5.46747247218718
C            2.88718965310066        5.87368725999500       -5.27046407063371
N            3.54579071131938        3.54220417576196       -4.62450522676850
B            2.68888578545981        3.53176529685119       -3.35343560934405
F            1.34610172654663        3.61113421968629       -3.70237689321141
F            3.06629677273590        4.59306148429687       -2.53812394932527
N            2.94651694426931        2.21308258758784       -2.61573652849861
C            2.45732599733249        1.95892544563992       -1.39281607136250
C            1.55487300640027        2.83824353195958       -0.62656206259051
H            1.48928461597055       -1.53315950105687        1.14535318056793
H            1.98536817849410       -1.80720284840922       -0.52286961067260
H            0.74122269357574       -0.62231235678485       -0.16492441116609
H            3.68141910998043       -0.38181425541656        0.70099738741241
H            2.44455651219710        0.78949378736685        1.05629328435026
H            5.15337544262256       -1.01550637821804       -0.91192370582066
H            5.54854190980273       -0.88549747898164       -2.61322934924782
H            4.15766658045291       -1.85096898129396       -2.09957175569467
H            5.82821052550335        0.21832953881077       -5.62497285205273
H            3.59244881865847       -1.32155110750843       -4.28350342553170
H            3.50964884647903       -3.64770361552022       -4.66080069393881
H            4.43256922193210       -5.70514736371785       -5.61132709156298
H            8.03246115603522       -6.87757974946675       -8.10064343706517
H            8.57957474746032       -5.50591573001999       -7.11738321014601
H            7.63911303084991       -5.22715232964833       -8.61870676928632
H            7.68769889206849       -3.46534495542794       -7.26512528040658
H            6.77664363733479       -1.43615359202269       -6.32433322926665
H            5.26676687053449        1.19047775469758       -7.53769662701930
H            6.68016526907722        1.88489626635732       -6.72159891252820
H            5.98176034171994        2.68577809381191       -8.11814279515666
H            3.96686718667215        5.81777303453889       -7.85347630662533
H            4.75396571367908        4.47583300396390       -8.62898610052220
H            6.10259685372454        6.37232389015776       -6.61764382828864
H            6.34998662555269        6.41038031621687       -8.36179775185489
H            6.90519826231903        5.03161969534271       -7.41532035001343
H            3.60475952426401        6.68954049160686       -5.17891763752247
H            2.28843681991901        5.84631098431627       -4.35944398819524
H            2.22020646851959        6.09247220829784       -6.10515307249334
H            1.18759029068822        3.64611850806967       -1.25978330492547
H            2.07505996690417        3.28561569880951        0.22052821812958
H            0.69422364541431        2.28531858056866       -0.24989647940484
