61
 energy: -11.323854900699 gnorm: 0.000666021344 xtb: 6.5.0 (97a52f5)
C            1.03440072557239        0.78374872339104        0.33281754552192
C            2.31601254287074        0.05940160196602       -0.05050070835918
C            2.81280265254401       -0.84829787913315        1.03003110477554
C            2.46640357551924       -2.18969860284507        1.20478718277744
C            1.51651740352112       -2.93377917691504        0.33927055065986
C            3.12540211314129       -2.65583577967875        2.38151507834476
C            3.14405366427378       -3.91882883377845        3.02589368989449
C            2.62737018988501       -5.12493600201356        2.39982613044612
C            2.87949734440316       -5.47457334217110        1.12059048585229
C            2.38967098382642       -6.66097433854330        0.45327131118558
C            2.80733724741362       -6.93722746939147       -0.85224387039225
C            2.35980248018089       -8.05450798315984       -1.51539870277089
C            1.48279584713972       -8.92847138140600       -0.90078036806448
N            1.00649392366075      -10.11757748046258       -1.61160777713554
O            1.40410217014862      -10.31722233405799       -2.77016297409952
O            0.22168576989320      -10.88360799318687       -1.03039124031651
C            1.05704874422555       -8.66902155981445        0.38866520576424
C            1.50030990693453       -7.55389864559493        1.05941093398539
C            3.74556639103865       -3.96049939320994        4.30748542590215
C            3.91203114860681       -5.02284442379068        5.24211126265667
C            3.43398766407282       -6.42038143737528        5.09543061872927
C            4.59768625804806       -4.50973542667741        6.34579040980781
C            4.93458645771572       -5.24678634523081        7.60393439638606
C            3.75356791298255       -5.34639259628717        8.55708443270016
C            4.87129565403376       -3.14339085649492        6.10520774100993
C            5.58151046076555       -2.19130733802249        6.97920528912780
N            4.36293033197607       -2.86365836055142        4.89856869781183
B            4.51872925456620       -1.49657086517446        4.22710303054495
F            5.86497356489570       -1.24468021182424        4.00277230388484
F            3.94925272677541       -0.52166763394239        5.03499120429224
N            3.77898591557560       -1.53635097948540        2.88690905782630
C            3.63589369253461       -0.45537744854247        2.10991618966616
C            4.21299830418843        0.87527257506762        2.37664346663861
H            0.68286548629370        1.44374474641004       -0.46261905454282
H            1.17925910980744        1.39163384702510        1.22688849538520
H            0.23308345904294        0.07758764318776        0.55413526886659
H            3.10253858398406        0.78309966074218       -0.29581402209514
H            2.16748451887401       -0.52334756663063       -0.96747439431071
H            0.72813402343840       -2.27817652347550       -0.02998174200837
H            1.03146227633968       -3.74030711917773        0.88854976575267
H            2.02507371519491       -3.35925434834337       -0.52586548519436
H            2.05246868778344       -5.79589722253472        3.01175220568323
H            3.52490253464891       -4.83105594109800        0.54953222452191
H            3.49095926075577       -6.26203794965261       -1.33756971548170
H            2.68357659356476       -8.26524631444197       -2.52022190845764
H            0.37205650199439       -9.35589897367193        0.85554754102962
H            1.15201096204121       -7.36637314555277        2.05895601490316
H            3.74916376423044       -6.84202082700433        4.14083119807247
H            2.34661784180449       -6.46802797219655        5.15596384051346
H            3.83350768384080       -7.06223192951564        5.87980010743457
H            5.77664384995904       -4.74525524777271        8.09587470069998
H            5.31006717822096       -6.24468526715550        7.34856900887787
H            3.39733285217790       -4.35546828059267        8.84281327986480
H            4.00828018488750       -5.88389671127245        9.47252661286252
H            2.91509920387984       -5.86593191226815        8.09115984117541
H            5.08233597915478       -2.09883687664553        7.94357011773557
H            5.60997028234388       -1.20435158711330        6.51716215059743
H            6.60908137159302       -2.51115115689372        7.15163127265896
H            4.84019605703600        0.84166640429520        3.26783464624478
H            3.42985057960317        1.61422345954094        2.54472408642842
H            4.82966443455924        1.20887633014698        1.54211683775085
