38
 energy: -8.084173041180 gnorm: 0.000794308495 xtb: 6.5.0 (97a52f5)
C            1.06030900883899        0.16795952533125        0.01020048904657
C            0.27374294716726        1.26227524643171        0.01917002093757
C           -1.18745146368547        1.23959621002891        0.01310840244875
C           -1.92204132873161        0.34527326247705        0.84355824460482
C           -1.29595730759675       -0.50462714464190        1.79236479675174
C           -2.01746288166085       -1.35753033932816        2.56878628212035
C           -3.41511747913743       -1.41274711786761        2.45938875096936
C           -4.06518087710923       -0.59630406104361        1.59077401520078
C           -3.34720240518133        0.31554013108047        0.77091734675667
C           -4.01566731280174        1.18923472354227       -0.08278106246425
C           -3.32387034858217        2.10152950718642       -0.87489352888372
C           -4.01398553396421        2.99929787434225       -1.73295801156197
C           -3.33341235043906        3.87451166924667       -2.51704215478366
C           -1.93041126033385        3.90048728080761       -2.49513334709682
C           -1.23474523524830        3.05722377752320       -1.68495761045410
C           -1.89852098968385        2.13433820198305       -0.83530608574160
C            2.51292338603034        0.16567147966788        0.03160193130772
C            3.19748507897908       -1.05239028210404        0.04581559122089
C            4.57410970032252       -1.09257348608336        0.07257875451784
C            5.30110448396341        0.08096450637037        0.08448662744929
C            4.64522377772546        1.29593002086789        0.07043995571999
C            3.26823876309039        1.34123884796615        0.04499384015164
H            0.58164536723097       -0.79387844955167       -0.04445336213073
H            0.74646485122129        2.22787617154968       -0.00170912356218
H           -0.23063773283435       -0.44902303593893        1.92301985383015
H           -1.51614725521816       -1.99372791340634        3.27998365971272
H           -3.97213085302981       -2.09792153046901        3.07749637241087
H           -5.13880181695567       -0.62552345471017        1.51762715808951
H           -5.08966056779235        1.16593648002316       -0.12346118967856
H           -5.08999821972453        2.97424386591057       -1.75351532436612
H           -3.86919822062259        4.55018549612502       -3.16371554424322
H           -1.40377380101786        4.59406113247946       -3.13030506882701
H           -0.15983055243511        3.08116084582895       -1.69636622655773
H            2.63320178585918       -1.96932617876791        0.03882023853250
H            5.08503383806910       -2.04167311342147        0.08466728247589
H            6.37837874920856        0.04864675006321        0.10566635254361
H            5.21309017170949        2.21214969638492        0.08052124579343
H            2.77263388436971        2.29534340411650        0.03643042775907
