36
 energy: -6.258041621947 gnorm: 0.000929411298 xtb: 6.5.0 (97a52f5)
C            1.32202509928152        0.47107798373189       -0.55107223293184
C            2.15041264576928       -0.20786932047172        0.52871227652313
C            3.11653250595250        0.72653401396937        1.18649195917975
C            4.35860179742358        1.12672877935122        0.67927722050228
C            4.96492964246569        0.65897883071582       -0.59155500953157
C            4.91485247842123        2.06968331473379        1.59605917603835
C            6.11655879467594        2.78518824548590        1.59207521308397
C            7.11027198673710        2.64067970799756        0.50130311025773
C            6.33943466671440        3.65538245284300        2.66423681707427
C            7.42741728820873        4.52489861929802        2.95935106098664
I            9.17855087947383        4.84121872829074        1.86755400128017
C            7.13726598179146        5.17273473436087        4.15561783325842
I            8.34735725657623        6.58688659012434        5.10320462722245
C            5.88741069981537        4.73082043898138        4.63177221001613
I            4.94216681023538        5.34884290078352        6.38536457377089
N            5.43783648227103        3.83692364527763        3.73130536523080
B            4.10050185078366        3.09551005168977        3.83822372048894
F            3.06419905696170        4.01743326155631        3.84601813178826
F            4.09874589925698        2.31383453517649        4.98386871231701
N            3.95630485414010        2.18846087645940        2.61185046801172
C            2.88200679397243        1.41169890033266        2.39977714054902
C            1.70024468114605        1.32922900079867        3.27738800733294
H            0.61477722260905       -0.21615015181513       -1.01904720126219
H            1.95730010775195        0.87876388644825       -1.33834877293234
H            0.75052960034770        1.30391427292447       -0.13966676473836
H            2.70052282931724       -1.06117815405272        0.11491893044119
H            1.49364501941682       -0.63854040826997        1.29378203490216
H            4.31677007872840       -0.05126345178736       -1.10371221399426
H            5.91536212862317        0.15745407335834       -0.41003286003361
H            5.13705849940873        1.49212713890771       -1.27279631780611
H            6.69166968683668        2.95374515714854       -0.45499871782865
H            7.45167877900092        1.60930659571778        0.41504476185457
H            7.99976157917868        3.26520737971607        0.69373340942938
H            1.83708208842237        1.96441484254532        4.15342370298988
H            1.53970198456231        0.30776948350104        3.62393704585239
H            0.80264224372024        1.66258304417068        2.75573858067787
