77
 energy: -14.979358738801 gnorm: 0.000835228785 xtb: 6.5.0 (97a52f5)
C            1.63898204819303       -0.91479275623762        0.25013708066625
C            2.89488682767459       -0.05927266505429        0.30313847020796
C            3.13346341756503        0.69158464693809       -0.96888350808058
C            3.66647640242142        0.16534785498343       -2.15266224679586
C            4.13304511987770       -1.22848729295504       -2.35568016303603
C            3.65183305271656        1.20085759132679       -3.12236711377568
C            4.05907783401540        1.20635737385821       -4.48027515544089
C            4.57229228064218       -0.01042932059083       -5.14572710341259
C            3.67796305560387       -1.04867105273310       -5.54279808072720
C            2.29119439131161       -0.92776793067139       -5.31932079804088
C            1.42820557500031       -1.92520817233569       -5.66947056042485
C            1.91116433505151       -3.09328926987025       -6.25931510115538
C            3.24663101416691       -3.24118821017442       -6.50022585013114
C            4.17187754489758       -2.22705821241904       -6.16736713346478
C            5.56608578267041       -2.37960998742778       -6.41836116858907
C            6.08101615160322       -3.60861354376323       -7.06903653507069
C            6.99895111503706       -4.44072930275816       -6.41516516041514
C            7.47282887896495       -5.58178241557873       -7.01974325150515
C            7.04549149677056       -5.92371909006731       -8.28850314970977
C            6.14056836053683       -5.11827109026708       -8.95309803368131
C            5.66300242025444       -3.97542468149343       -8.35481525394025
C            6.46018421260520       -1.33976438737972       -6.03181631657103
C            7.84653356592911       -1.42569772475061       -6.28836976799872
C            8.70271197160119       -0.43056703756703       -5.91413061029053
C            8.21918599071400        0.70562033664948       -5.26527585544277
C            6.88438462786438        0.83369576301720       -5.01189637753250
C            5.96838398627992       -0.16760269694792       -5.39380023019390
C            3.93978236735163        2.44303108231260       -5.16293970608726
C            4.23189843705875        2.79622966189132       -6.50570254576916
C            4.77342463065029        1.90054693286566       -7.55762440036673
C            3.94895412153050        4.16040165123401       -6.65191070921850
C            4.17924735089804        4.98253056468465       -7.88069367435814
C            5.64001368482144        5.36459077842400       -8.06196417156477
C            3.47237840793097        4.65267473778412       -5.41656271367024
C            3.04591493761977        6.02691946963994       -5.09360909006966
N            3.47189867637945        3.61219173923031       -4.56705992706985
B            2.97327940779547        3.69582802681614       -3.11703689944496
F            1.63007670253827        4.05596567335128       -3.11630755377971
F            3.74854295646903        4.61521463551528       -2.41851097728518
N            3.12615642374099        2.31257876287108       -2.46808273119593
C            2.79682089931125        2.04502802820617       -1.19361048103400
C            2.20834726656014        3.00211902346865       -0.23870775414891
H            1.46469970515010       -1.44781822196224        1.18720073541856
H            1.70240812419402       -1.65822406883674       -0.54614550073524
H            0.75770675410958       -0.30380039544740        0.04764658423574
H            3.77294281745008       -0.67731816673123        0.52604571092358
H            2.83243910653746        0.65534399383299        1.13289508542573
H            4.33130378739982       -1.72599844318383       -1.40667744961830
H            5.05633182937692       -1.24958768199764       -2.93494525039792
H            3.38525951558910       -1.81487319907862       -2.88996252930571
H            1.91885807824194       -0.03150146283970       -4.85520055743368
H            0.37219788755166       -1.81466190922608       -5.48479173911456
H            1.22490656859811       -3.88093522167433       -6.52427686920126
H            3.60939577206342       -4.15073766471012       -6.94433337016756
H            7.32049676850864       -4.17936805824822       -5.42160731986941
H            8.17750776989147       -6.21143913491855       -6.50159681376267
H            7.41825227286572       -6.81851554558614       -8.75959376941545
H            5.80921786690196       -5.38498150279821       -9.94335376403242
H            4.96735900908187       -3.34000391923929       -8.87552222084418
H            8.22857588615406       -2.29195917698968       -6.79814329553034
H            9.75690194422159       -0.52022936500635       -6.11944013345590
H            8.90196746389120        1.48527564975643       -4.96955179535393
H            6.51164597028108        1.71452274015075       -4.51945518504045
H            4.29680491543546        0.92082837312869       -7.51969745762149
H            5.84723482656354        1.75941495640775       -7.43242695343795
H            4.60376311859010        2.30756368191963       -8.55415342984015
H            3.55491450533045        5.88303032430462       -7.83041317810225
H            3.81344033922044        4.43178675610021       -8.75586964481597
H            6.00270301240576        5.94144072560755       -7.20944460421632
H            5.80020083972385        5.96459680303874       -8.96019881548499
H            6.27129849016515        4.47803150638339       -8.14003619160956
H            3.85084694129647        6.73946064642584       -5.27691923734115
H            2.76400551510312        6.09813496463304       -4.04258603794207
H            2.18393595486099        6.31957785684081       -5.69412107859434
H            1.99714870467088        3.95005402222480       -0.73411107097692
H            2.89214370603179        3.19904360477521        0.58725345068825
H            1.27347650189444        2.61986903891177        0.17187600618908
