43
 energy: -9.341289239240 gnorm: 0.000951433402 xtb: 6.5.0 (97a52f5)
C            1.11502479753012        0.17308123722206        0.00870195755917
C            0.33119101275994        1.27011633761814        0.01399623317860
C           -1.12913138021759        1.25177905192057        0.03070803327612
C           -1.85420219028344        0.37298112339511        0.88582430458075
C           -1.21676916241210       -0.46282448310788        1.83885135965315
C           -1.92944997363162       -1.29846352243366        2.64168687482051
C           -3.32861074291215       -1.34907802813862        2.55579017692617
C           -3.98881423415572       -0.54612712135946        1.68240546451176
C           -3.28013136592116        0.34693091429548        0.83479415055359
C           -3.95839761613782        1.20610024951134       -0.02575204402802
C           -3.27572518577005        2.10206870135255       -0.84378416990828
C           -3.97538294248908        2.98233460399836       -1.71179439258884
C           -3.30375534262919        3.84064071592064       -2.52172384915516
C           -1.90096349904599        3.86646978332946       -2.51638493706192
C           -1.19629389240921        3.03934847689918       -1.69752116090580
C           -1.85025886164014        2.13382851150262       -0.82269325954407
C            2.56549019235196        0.16737549285940        0.00193291257463
C            3.33357163671022        1.35153760471522        0.00245150215015
N            4.63391877177856        1.42305151190504        0.00126521411930
C            5.30911083777399        0.23758176996165        0.00284650123587
C            6.71827167465999        0.24195089925887        0.00903216761221
C            7.43036729815685       -0.92227482124016        0.01281040537998
C            6.77173211666859       -2.15528204147989        0.01067330431031
C            5.41060691697031       -2.20400896185526        0.00476895474941
C            4.64787054951052       -1.01363311938591        0.00128425316940
C            3.24766315719052       -1.02379117013801        0.00025105204428
H            0.63318835651947       -0.78809984930291       -0.02438747251553
H            0.80606685858599        2.23386671964777       -0.03182487900426
H           -0.14931235468699       -0.41019554123551        1.95101521573058
H           -1.41963447280577       -1.92410899762034        3.35608432968057
H           -3.87858165442860       -2.01980871149039        3.19546420044841
H           -5.06347488634223       -0.57185999448224        1.62671040105782
H           -5.03274842767988        1.18390594931509       -0.05202146760690
H           -5.05143051790161        2.95690245983908       -1.71990140852362
H           -3.84662622091263        4.50249770444375       -3.17651358398681
H           -1.38134723935719        4.54652953634059       -3.17149133913787
H           -0.12171468746240        3.06218317359139       -1.72246806323083
H            2.81645830672211        2.29517283261753        0.00374273414163
H            7.22509180350166        1.19085566024160        0.01110485144801
H            8.50770801957317       -0.89405829388285        0.01802789486494
H            7.34530440914277       -3.06765746615391        0.01428283277784
H            4.89907104099651       -3.15097880917132        0.00412700137087
H            2.71531909412830       -1.95784008922415        0.00174774327197
