59
 energy: -10.830954416916 gnorm: 0.000557194655 xtb: 6.5.0 (97a52f5)
C            0.95747348162743        0.50004172653966        0.24169787298323
C            2.34985038385369        0.08778153774109       -0.21321989491956
C            2.85316971886678       -1.12766230512246        0.49980563880551
C            2.59266456269185       -2.45716888278553        0.15146553235106
C            1.81502970421496       -2.91284703305270       -1.02710906189312
C            3.22817408268121       -3.28476976966666        1.11859464891267
C            3.29908584490916       -4.68556663371269        1.24549929023363
C            2.66786373711610       -5.58672969856886        0.25512009992276
C            1.46552914139311       -6.23448337128617        0.53723034812720
C            0.87061332037271       -7.07469734033635       -0.38767919593644
C           -0.38991400036686       -7.75109531509207       -0.06568777149379
O           -0.94717871842429       -7.62866740714899        1.00957169504480
Cl          -1.06460794191947       -8.75011357391086       -1.29918915408960
C            1.48234530061659       -7.26707685280183       -1.61782581940314
C            2.67576536304137       -6.63371012400705       -1.92743413942869
C            3.30624718085141       -6.84117948849663       -3.23434518333040
O            2.84189477150402       -7.58459830066422       -4.07875253817873
Cl           4.76253037990397       -5.96571850646064       -3.53186653729965
C            3.25979404269525       -5.80147481774328       -0.98847665224368
C            4.00293199501662       -5.18412716825905        2.35886546834013
C            4.27884983149139       -6.51410001882401        2.78187847004232
C            3.83934566272639       -7.76053492755024        2.10757605300031
C            5.01397661425230       -6.43383723291227        3.96953821727915
C            5.46698638983647       -7.58710809596578        4.80944084511606
C            4.35330127494621       -8.15535185286627        5.67609113241339
C            5.20745387559698       -5.06911132799735        4.28550137288538
C            5.90583897969484       -4.48841680133280        5.44715501693683
N            4.60422735257300       -4.36756494348302        3.31530254850274
B            4.59201727384618       -2.83810605376512        3.26610101407347
F            5.89555815695046       -2.37214433779881        3.18177649131182
F            3.95515161016917       -2.34870088451053        4.39665468922610
N            3.81707628935738       -2.40058250756269        2.02116258260673
C            3.61487660713909       -1.11704469411112        1.69085877709762
C            4.11971843009104        0.04614129566084        2.44336016546015
H            0.59907420703321        1.38553771542358       -0.28665268026574
H            0.94430717182078        0.72343583485279        1.30932727103842
H            0.23524570596706       -0.30007088549922        0.07453044035388
H            3.05837803352136        0.91020864420684       -0.05845486028387
H            2.36205880626925       -0.09900137545699       -1.29355615743240
H            1.17995100196046       -2.11804507794910       -1.41695464069859
H            1.16640319413292       -3.74914445613673       -0.76691899692656
H            2.48013350835265       -3.23338408031565       -1.82917854293598
H            0.98656947016539       -6.07884124970140        1.48687711937339
H            1.02678432192858       -7.91511249954521       -2.34510168144330
H            4.18586030984390       -5.31063792934788       -1.22390736024698
H            4.00837043289325       -7.70118994985204        1.03251346750972
H            2.77718865920798       -7.93831370483765        2.27584337832569
H            4.38519612054873       -8.62826333156976        2.47599632336084
H            6.30562591971586       -7.26389413068221        5.43717726763630
H            5.88351307528822       -8.36456932238538        4.15862068896073
H            3.95641490637866       -7.39572257525230        6.35083562352675
H            4.69570400155637       -8.99401552992609        6.28538174797738
H            3.52096455352809       -8.50807096034608        5.06590375254683
H            5.39254719128776       -4.73872137285562        6.37517389210864
H            5.93778486474498       -3.40182814066370        5.36210373559526
H            6.93157890742990       -4.85107279260426        5.50904053231126
H            4.60934519461900       -0.28358345270364        3.36032458539968
H            3.30701677292892        0.71852215896830        2.71762440702076
H            4.84794296955949        0.60434417203394        1.85500866473112
