33
 energy: -5.813833661698 gnorm: 0.000812999971 xtb: 6.5.0 (97a52f5)
C            1.26613975416453        0.62538363860282        0.41917284860744
C            2.13944116008724       -0.49535767296560       -0.12428767497745
C            3.13865279665342       -0.98346856667692        0.87598298026451
C            4.42146826202640       -0.46180901302892        1.07438110198933
C            5.06170296857094        0.61624526723649        0.28328445858687
C            5.00844058147143       -1.17910292527168        2.15447931997114
C            6.25240629766178       -1.07715777230689        2.75247309005160
C            6.53683237937229       -1.91640708853781        3.81621058404253
C            7.69977373148607       -2.03592310452808        4.62143264443027
I            9.43103532654711       -0.89621049187228        4.40088503264195
C            7.45656758630904       -3.03348089801149        5.56000119500454
I            8.79311806443905       -3.66627891445439        7.03172426646876
C            6.16008685396756       -3.54978706443610        5.36350843487674
I            5.25266703669093       -5.06486764611344        6.46990026663552
N            5.63565398477884       -2.87073827106349        4.32532863270540
B            4.23279884794483       -3.07763825432705        3.72989756304164
F            3.28221947329682       -2.81915391450626        4.70528081758003
F            4.13040700415510       -4.37324614932591        3.24750978661112
N            4.03296852184359       -2.09454558287426        2.56590759074933
C            2.91200998846484       -2.00338201707492        1.83058591767071
C            1.70426665559558       -2.82842349912123        2.01371447156941
H            0.53851335426637        0.97243777995347       -0.31693583728130
H            1.86878512544042        1.48403406100468        0.71785498185989
H            0.71467487116363        0.29977533910186        1.30216503369824
H            2.66857568317646       -0.16426245083321       -1.02592602714081
H            1.51825370494272       -1.33885757330912       -0.44838902176489
H            5.31431323725264        0.26388026044463       -0.71761311661509
H            5.97941744782301        0.96333581481614        0.75844069022451
H            4.39623778657621        1.47424155525212        0.18259495903575
H            6.97953843410491       -0.36715802596717        2.40853044815594
H            1.85671139202152       -3.54337291286421        2.82324223346934
H            1.47289270682839       -3.38948238534095        1.10792361381682
H            0.84296898087567       -2.20998152159955        2.26701871402170
