61
 energy: -10.966736547732 gnorm: 0.000829070645 xtb: 6.5.0 (97a52f5)
C            0.99957502276697       -0.54594111448026        0.58526895821007
C            1.99845005785638       -1.07734623596543       -0.43119731735880
C            3.06102628631786       -1.92621254494754        0.19186945183096
C            4.26796513456617       -1.47306823160495        0.70475350137383
C            4.75905325152448       -0.07428874055694        0.68559876367542
C            4.96361890949249       -2.60644195418417        1.22683378392931
C            6.18405343166496       -2.70831662108686        1.86803133424547
C            6.55069683326497       -3.94655326514627        2.37879275149517
C            7.64212270800421       -4.38027721834143        3.24755208125415
C            8.75652579625994       -3.70638890537367        3.71919823899125
C            9.63158921739873       -4.37529254017533        4.55281949386247
C            9.40038485347196       -5.69307326196004        4.91511883661523
C            8.29159173744238       -6.37761179520362        4.45455762979611
C            7.39943087431761       -5.72873794099030        3.61019112679852
C            6.14327989645302       -6.13811455780997        2.97202058351225
N            5.76331423384756       -5.04340961275595        2.23451080565383
B            4.60064014569998       -5.13257508057547        1.25702647275484
C            5.15062576510247       -5.72465571011046       -0.13097949237442
C            6.10162760499452       -5.00511546405544       -0.84345988436423
C            6.58321376174998       -5.49355096596939       -2.01886765663154
N            6.12846024674501       -6.71882897097892       -2.50606708357662
C            6.61834526872321       -7.23601640435965       -3.78131449301843
C            5.16816502087717       -7.43227453152627       -1.78984655069161
C            4.68842629870021       -6.94167374741181       -0.61422061341742
O            3.56540233002945       -6.05390237776319        1.80627134160705
C            3.94582118896226       -7.10262302048203        2.53526042235233
C            3.01296945234324       -8.15017363671116        2.78733569515159
C            3.36896158590049       -9.25027761148523        3.49028662268935
C            4.67534801928102       -9.38402569405412        4.00309329109021
C            5.59702625407345       -8.40333927811535        3.81831769921269
C            5.28108489575005       -7.22916551984429        3.09641604443544
N            4.10853689438644       -3.69866256737047        0.99440939082473
C            2.97279757990863       -3.33341914560311        0.39962135563205
C            1.89355926773575       -4.24843969121175       -0.01253875936440
H            0.22981741719348        0.07145703568317        0.11880028981359
H            1.49546945842088        0.06071500013539        1.34366671527486
H            0.49824487517941       -1.36206330074282        1.10670153650124
H            2.47339615624223       -0.24845778891698       -0.96895902430579
H            1.48307910316000       -1.66178896539494       -1.20245392024644
H            5.02454320146619        0.22801403859755       -0.32718158905009
H            5.64217413164562        0.04324047749125        1.31233111304188
H            3.99765736116075        0.61136789331470        1.05587639232802
H            6.79708706705581       -1.84406422086794        2.03746163218243
H            8.92736386708104       -2.68346395596494        3.43493936819296
H           10.50361642829339       -3.86509758462601        4.92717960861601
H           10.09661425502025       -6.19226735711464        5.56860197879175
H            8.12627118699170       -7.39658426642075        4.74782420334657
H            6.44478529837965       -4.06376380965238       -0.45509822231443
H            7.31460090213889       -4.94955354113428       -2.58898632968524
H            7.55086079099019       -6.74932916478699       -4.05744761740805
H            5.88207250421370       -7.05366295542838       -4.56077034816809
H            6.79674482571120       -8.30634515479903       -3.70674835352734
H            4.82160168897686       -8.36983442666338       -2.18597531744957
H            3.95362437804451       -7.48330109209836       -0.04658905077150
H            2.01837052472310       -8.04652709936004        2.39250323862740
H            2.65057553805258      -10.03471955446567        3.66182804524456
H            4.93792807107985      -10.27161389074296        4.55435138775418
H            6.58521902069039       -8.52287280335727        4.21901152938948
H            1.96039965355154       -5.18423344975665        0.54127284564002
H            1.96503388492622       -4.47839422356216       -1.07503154317772
H            0.91358858401069       -3.81369188115738        0.18028760516337
