76
 energy: -14.093103728044 gnorm: 0.000718649291 xtb: 6.5.0 (97a52f5)
C            2.10577546017050       -0.34457269734085       -0.65826524116193
C            2.94381128461846       -0.59071653362241        0.58683246856692
C            3.66291926566268        0.63752348184354        1.05080289801469
C            4.95481439386425        0.96944921948290        0.74429106756491
C            5.91075807806469        0.15587721338693       -0.04656886955205
C            5.24621669865457        2.22790809724937        1.37856684895122
C            6.45121842211738        2.92474676428742        1.36023827158377
C            6.51887691283907        4.13056989248755        2.01215557969854
C            7.54250569168461        5.16329486526021        2.10568727434591
C            8.83275542346468        5.22804025305069        1.60167780715441
C            9.57750310739783        6.36514825831964        1.83697923427771
C            9.04731544261653        7.42642129075410        2.55806801438650
C            7.76449670419762        7.37664767403129        3.06424729981660
C            6.99614365021125        6.23632365846890        2.84926035977230
C            5.63150027164279        5.86252162355211        3.22429781312511
N            5.45560505576510        4.61878816104237        2.72001556681579
B            4.22268369104961        3.78083686379027        3.05554110224546
C            4.45841582334544        3.08688573151920        4.48785086962711
C            5.75114077337526        2.84073275467498        4.93359816404039
C            5.95370820973055        2.22765918042688        6.13141270115306
N            4.86481043203352        1.83725469959180        6.90979914900696
C            5.08203940958507        1.18888855754486        8.20040390558676
C            3.56978998180132        2.10064684528153        6.46423480044584
C            3.37008520045279        2.71270466121594        5.26494337100787
O            3.07185691387551        4.72557978499163        3.17275827772724
C            3.26113435039822        5.92404697463659        3.77002629063787
C            2.16110283066605        6.61729961103715        4.32000003409718
C            2.32482737762092        7.81656739991835        4.94314016782595
C            3.59375828213460        8.39354306993783        5.04682837090346
C            4.68366894373374        7.76690232286657        4.51327115339960
C            4.55823633567280        6.53104930199751        3.86022058150317
N            4.08754294656960        2.62507379610057        2.02103012735939
C            3.08148182468649        1.70357610614752        1.83354440979188
C            1.73869136307292        1.70640226007084        2.26306715425940
C            1.05180579517421        2.78155066511649        2.74882242976219
C           -0.30955684691162        2.77825139351900        3.14332953626791
C           -1.07985551001244        1.59609619452494        3.21856727613960
C           -2.38633967046876        1.63360418540383        3.59289270946864
C           -3.02961852017360        2.85376313657648        3.91638955301212
O           -4.34899903072128        2.79847885048772        4.26517251808110
C           -4.94247139399916        4.04754727964873        4.54101721943712
C           -2.25280120764020        4.03677138462630        3.84827909721722
C           -0.94513316210974        3.99445911494901        3.47724457289443
H            1.58922843190833       -1.24715048558184       -0.98983050706097
H            2.72587964852810        0.00511115869145       -1.48461865296890
H            1.35065760329733        0.42172408637334       -0.47857726813548
H            3.67481364966932       -1.38655638429380        0.40259169263052
H            2.31765635301252       -0.97040235376978        1.40252520972284
H            6.42984047836558       -0.55945189535845        0.59147892905193
H            6.65862397362201        0.78580450468619       -0.52748808683602
H            5.39888649823870       -0.39873270412091       -0.83274835160618
H            7.29787444882759        2.55196320034835        0.81617140669793
H            9.23264255823128        4.40403930081509        1.03808572769204
H           10.58165125111755        6.43199982834433        1.45211977553381
H            9.64752691099069        8.30598203572185        2.72287102340555
H            7.36477277300739        8.21196518644924        3.60674146570815
H            6.58133333213633        3.14684407573033        4.32445259905417
H            6.94567970638373        2.03408864086482        6.49820611315591
H            5.98063418583711        0.57657028826744        8.16753331237356
H            4.23839009866847        0.54879381350382        8.44916842307168
H            5.19552589176085        1.94152571443804        8.97756749165946
H            2.74178090964498        1.80873574463114        7.08483132379048
H            2.37691352312398        2.91111006844674        4.90634505097160
H            1.18874780613306        6.16720448700291        4.25155891732487
H            1.47281740826059        8.32470942484003        5.36378202894316
H            3.70894357469335        9.33957697788023        5.54932700377313
H            5.65343766596058        8.21631984986392        4.60977948673465
H            1.19238520340042        0.79363365779607        2.11821762586428
H            1.57348965356962        3.71539297918196        2.80732214354554
H           -0.62401068433925        0.64958526062065        2.99181821754555
H           -2.96626987399377        0.72972099071288        3.64977023389086
H           -5.99286931865234        3.88287496378165        4.78563971989750
H           -4.88075862920791        4.69043820660531        3.66156644837591
H           -4.44859354251679        4.51344514118051        5.39501706810381
H           -2.70311690003267        4.98171440874903        4.09044675302392
H           -0.37876559555321        4.90594647877902        3.41316573881098
