49
 energy: -9.494330471582 gnorm: 0.000637709129 xtb: 6.5.0 (97a52f5)
C            1.40970029120094        0.17475174984897        0.57506803528080
C            0.52860315919406        0.38333840550591       -0.43423711076694
C           -0.87622199261882        0.57693574509791       -0.28366209851460
C           -1.71740662127912        1.04879014188671       -1.29196557700479
N           -2.98600572232332        1.14044282407545       -0.82966711582281
C           -3.02546907891650        0.70908359853514        0.49349119252933
C           -4.09144341025192        0.58095630301843        1.38731803341658
C           -3.84861132088890        0.06866457127535        2.63034429039139
C           -2.55476659825231       -0.34409311855125        3.01956613952761
O           -2.30511224659708       -0.89130530798728        4.29068242154977
C           -3.22738095577593       -1.79147710482244        4.84215136634107
C           -3.29019814364999       -1.93021304046406        6.22889843479171
C           -4.17054176573316       -2.81216754229769        6.80781706743416
C           -5.00217067287211       -3.58021733687623        6.01810803826419
C           -4.94574032638957       -3.46506113767439        4.64380060909722
C           -4.06787972286388       -2.58418454849701        4.05938758543194
C           -1.49421193221172       -0.19460779890080        2.13660785252550
C           -1.71943104868425        0.33878680765754        0.86760478888450
C            2.79140757232850       -0.04630616221468        0.37876763079763
N            3.43757659355837       -0.16739703423246       -0.81681728154946
C            4.81198514439141       -0.41085184806026       -0.61188867964923
C            5.91383614769220       -0.62329264179486       -1.41692684501228
C            7.15715244122217       -0.84707975540980       -0.81226742122263
C            7.32301080536188       -0.86317823289169        0.55699667446033
C            6.22026076670825       -0.65140430838204        1.41439283717072
C            6.18369826862403       -0.63303430488348        2.82649864427535
C            4.99589573686904       -0.41133952206438        3.49227946669694
C            3.78612084947388       -0.19906680666900        2.82077433667507
C            3.77934492787170       -0.20994663170162        1.43545251833242
C            4.99814078558239       -0.43183746479171        0.77891454860940
H            1.06292769629600        0.21624772979564        1.58834705984011
H            0.91596985238021        0.43844570164518       -1.43515084066203
H           -1.40606656743563        1.32745268213840       -2.28595720274108
H           -3.80839311597960        1.44923555429629       -1.34624264214614
H           -5.07929687052272        0.88201949170441        1.08808727641566
H           -4.64923612732859       -0.02297398290480        3.34236448732481
H           -2.63482473769155       -1.32845480416954        6.83321124118557
H           -4.21092214932407       -2.90559281643278        7.88073478977094
H           -5.69130234542062       -4.27205690127692        6.47364090478496
H           -5.58888721930442       -4.07143516820773        4.02713112768847
H           -4.00435512222806       -2.51205941479692        2.98857842911935
H           -0.52653535609758       -0.54178549211271        2.43717408410843
H            3.02851295368367       -0.12688802141898       -1.74752904107901
H            5.80619084210769       -0.61634629740657       -2.48646582013449
H            8.01462770758471       -1.01320853593619       -1.44310117072835
H            8.29270295662340       -1.03863244402313        0.98801417412555
H            7.09536163460687       -0.79408753968084        3.37404796647786
H            4.99655804606483       -0.40089836494458        4.56957278626925
H            2.87339599126611       -0.02881987397951        3.36283200747961
