70
 energy: -14.589650402529 gnorm: 0.000540032656 xtb: 6.5.0 (97a52f5)
C            0.64328769897715       -2.03197392935404       -0.19400560740440
C            1.46741309311601       -0.86013727720120       -0.70456325637830
C            2.71082845682322       -1.29672818844907       -1.41337710073253
C            3.95173632098125       -1.51636344172234       -0.82459170925082
C            4.28920112095710       -1.31321215250259        0.60565779539170
C            4.83303729750239       -1.97435372449666       -1.84617744905081
C            6.16535485005857       -2.38297268622835       -1.78245589850957
C            6.73050927924269       -2.92979081388879       -2.91550233144224
C            7.96781194275799       -3.65945919642388       -3.14897369620188
C            9.06711966981123       -3.89165383414618       -2.33169398738712
C           10.09888109765300       -4.66808817130643       -2.81596861168284
C           10.03947432880208       -5.21820456668737       -4.09265073237085
C            8.95145075026544       -5.00442521271545       -4.91357325525323
C            7.89881826160767       -4.21389877682857       -4.45338540926233
C            6.62030636400337       -3.81362207305677       -5.03763363865977
N            6.03432450230845       -3.04091216727690       -4.09738139470742
B            4.73841895873512       -2.28418068100563       -4.37183059572346
C            5.11935548546783       -0.86958407258382       -5.04203297128395
C            5.03908438609133        0.31448129658506       -4.29288750087647
C            5.39340692862547        1.50669915503227       -4.83478556990698
C            5.85795031959279        1.58034989834744       -6.17764689613521
C            6.23250730316509        2.78504051065314       -6.76905138340081
C            6.68796980809236        2.83371322239151       -8.08558262148004
C            7.07630250822975        4.05454206224293       -8.70439910698620
C            7.51668459664092        4.07227788244375       -9.98828021076953
C            7.59800770399109        2.88072698694642      -10.73602761422655
C            7.23825514824961        1.69362499075073      -10.18518258496055
C            6.77150467926752        1.62645188219259       -8.84317663382317
C            6.39720888161041        0.42175560681328       -8.25198706173918
C            5.94235546100213        0.37503599733752       -6.93684306093306
C            5.55900304057742       -0.84484027337941       -6.31929766994280
O            3.90427587226357       -3.07867993895661       -5.32611459004464
C            4.51976910552642       -3.81191534526838       -6.29111259767530
C            3.77914686043808       -4.23133850280713       -7.41405122221498
C            4.37054619291614       -4.92739583369269       -8.42928503292682
C            5.72718169077055       -5.24480095659203       -8.36947013324629
C            6.47747866403513       -4.87615842118126       -7.28414653167049
C            5.90714241286884       -4.16661399418973       -6.21988057213892
N            4.06274506674640       -2.00900297656357       -3.01048549621484
C            2.80026367340814       -1.61819437831064       -2.79374222539490
C            1.73954475728347       -1.51895305887137       -3.81405241409297
H           -0.26102841769632       -1.70462050018010        0.32347477522084
H            1.21925110903603       -2.64403409507742        0.50226058841956
H            0.33725248747209       -2.68380622113456       -1.01416236469048
H            1.74249687802752       -0.19627881672428        0.12440918194239
H            0.86917913535292       -0.23943726969052       -1.38315774486367
H            4.22158039936068       -0.25830327334153        0.87410812898822
H            5.30258599367901       -1.64878043652149        0.82627245471698
H            3.60764016977270       -1.87023586339187        1.24943972201096
H            6.70624772410402       -2.36596600981551       -0.85546307234094
H            9.09994090300835       -3.46975508576562       -1.34265080878835
H           10.96038673655226       -4.85448341396989       -2.19584066469711
H           10.85665571668583       -5.82671505176589       -4.44416526342561
H            8.91506046433567       -5.44865840344910       -5.89023179270385
H            4.69033934590509        0.25716995826115       -3.27791194828550
H            5.32882566031055        2.41077722636570       -4.25452954967435
H            6.17010565089016        3.69400014134511       -6.19867840066684
H            7.01587807328058        4.96677705896068       -8.13635102089651
H            7.80798107387863        5.00430791424038      -10.44450411816180
H            7.95021503308873        2.91707704457910      -11.75392998066998
H            7.30191965640940        0.78494998063719      -10.75876335239488
H            6.46057648951439       -0.48847954299901       -8.82035162879362
H            5.62592628216071       -1.75806334723990       -6.87831159456936
H            2.73593620355695       -3.97427771323576       -7.45978690980255
H            3.78867637634533       -5.22947227869672       -9.28472529732063
H            6.18453134719069       -5.78750958281266       -9.18050975925661
H            7.52232442704123       -5.12045354523973       -7.25489694424990
H            2.12849137689026       -1.78952488886715       -4.79533964459525
H            1.34955120240187       -0.50279081458209       -3.87528915730531
H            0.91254796098821       -2.19053801595168       -3.58358525240086
