72
 energy: -14.806582100477 gnorm: 0.000742214244 xtb: 6.5.0 (97a52f5)
C            2.26004454144524       -0.25652546387328        1.57742940553669
C            2.89226333683901        0.47102393108018        0.40120230540780
C            3.65525522423370       -0.44871018594709       -0.50092724101658
C            5.01350377803143       -0.66556445602142       -0.46484087761405
C            5.98789526415058        0.00426477541597        0.43172712358547
C            5.32908448226135       -1.61220503476507       -1.49184938114952
C            6.59026154536231       -2.07850333504884       -1.87371916388112
C            6.66563149951452       -3.02907763788824       -2.85991234190704
C            7.75041150556985       -3.85727609155452       -3.36215867391467
C            9.11659638668344       -3.84891821771317       -3.10473514243810
C            9.90614621818555       -4.81017475391111       -3.69751843413335
C            9.35041506323727       -5.77882225574542       -4.52914386285730
C            7.99711309278315       -5.80614235684447       -4.78836025420125
C            7.17732411666124       -4.83578797164857       -4.21185848308840
C            5.73703224645438       -4.60093697874960       -4.24752033168583
N            5.53585786831580       -3.51891781067856       -3.47516285538708
B            4.15190011413572       -2.88741951248911       -3.32993824639634
C            3.90731828468192       -1.94701641279944       -4.61198732066311
C            4.47707494301965       -0.70336783129625       -4.63846036618051
C            4.27392797293714        0.10191087120407       -5.73541832066248
N            3.55652788463986       -0.23874609030073       -6.79314957236347
C            3.02167154240918       -1.44765012618342       -6.74688621587828
C            3.16742948683806       -2.32642723239413       -5.69820960241520
O            3.16602351290613       -4.01607964963819       -3.31414973505768
C            3.34213375076378       -5.05408111489309       -4.18599707661701
C            2.24514511513731       -5.84327858046512       -4.56314095346531
C            2.38763699256992       -6.85684323603081       -5.47207399971949
C            3.63069010559055       -7.12686870854258       -6.03379850071479
C            4.73065789115158       -6.39193854446684       -5.66823060134641
C            4.62128082534654       -5.35441154501611       -4.73932433119766
N            4.12613242992870       -1.96952138960633       -2.07500877145500
C            3.08268252440674       -1.28066052531892       -1.52152522597825
C            1.70744531512383       -1.26807206743877       -1.88754645014634
C            1.15586467185885       -2.03977019826665       -2.85090615911204
C           -0.21390073251086       -2.02887645371963       -3.27178523797956
C           -1.18539495979512       -1.19966322474630       -2.68807821140771
C           -2.48286319187647       -1.23059671676005       -3.11621913165318
C           -2.89429385494576       -2.08857184454901       -4.15449624257707
O           -4.22655378959764       -2.05779101661195       -4.52379192345488
C           -4.57102465102327       -2.94227209151399       -5.56788921228185
C           -1.91669377865725       -2.91544543568013       -4.74024099115402
C           -0.62007477380815       -2.88336742294576       -4.30969207092050
H            1.70363988392211        0.42045666178441        2.22884947780401
H            3.01864673300908       -0.75205594257336        2.18520123844229
H            1.56937755348824       -1.02929852118284        1.23597158248509
H            3.56258744160281        1.26237168291826        0.75790324413926
H            2.12677360618817        0.99488293322726       -0.18360720780043
H            6.28161034043104        0.97429635037346        0.02915618773524
H            6.88876422382608       -0.59722332613163        0.55418815957638
H            5.56382509919853        0.16282813535299        1.42362100114859
H            7.47737039645012       -1.74540569702859       -1.36933319878578
H            9.53573717718790       -3.10488101143082       -2.45078591816308
H           10.96722582857631       -4.81680837101664       -3.50956485845936
H            9.98993142219249       -6.52407085303294       -4.97303995044763
H            7.57891296300633       -6.57043825805188       -5.41588927109191
H            5.06777309799977       -0.37122822806323       -3.80364253618611
H            4.72139197174173        1.08437054425748       -5.75415064629619
H            2.43332671332506       -1.74582192615084       -7.60170844735399
H            2.71066898950212       -3.29907040673483       -5.72285164763123
H            1.28627386686299       -5.62895361948415       -4.12653456836977
H            1.53237572759396       -7.44732226130539       -5.75710550731724
H            3.73037395344572       -7.92141110905127       -6.75495395828636
H            5.68456161492629       -6.60239904004478       -6.11443167442326
H            1.07410838641189       -0.58000198798515       -1.36043855315678
H            1.79591487330837       -2.74371686147810       -3.34121314908802
H           -0.90725950884244       -0.53426218302268       -1.89084244497393
H           -3.22308977898483       -0.59522773273993       -2.66321393432811
H           -5.63720697198074       -2.84013009750900       -5.77541437581601
H           -4.36903048198579       -3.97169354478963       -5.26813074385657
H           -4.01175671787283       -2.69092532455784       -6.47025858520522
H           -2.19189945240536       -3.58383487866576       -5.53568964212012
H            0.11392124699313       -3.52272518153916       -4.76901739267236
