35
 energy: -6.747737230143 gnorm: 0.000524006055 xtb: 6.5.0 (97a52f5)
C            1.05321540444931        0.29707296701252       -0.06399365238959
C            2.52353182475141        0.40879966916682        0.30932696695797
C            3.28924331196066        1.30218552724560       -0.60877534753672
C            4.54134395566236        1.11486066487411       -1.09431967321625
C            5.40621246976292       -0.06467895361271       -0.85111699201319
C            4.87160351988985        2.25024491807236       -1.94092578734313
C            5.99924801025464        2.50536187314063       -2.67237812981553
C            6.13059321616980        3.68479467789299       -3.45511058151021
C            7.29805627817132        3.92905073389672       -4.20064604667507
C            7.40416503709123        5.07544805116712       -4.95445608266339
C            6.32914689596948        6.02800809066188       -4.98538085152819
C            5.18292677301670        5.79454771578638       -4.25700615613773
C            5.08846540051013        4.63798422244884       -3.50344136361014
B            3.82644917964188        4.34870329878317       -2.68834925420159
O            2.70002660493554        5.18295950062377       -2.63859214525547
N            3.79968036993434        3.12050575401736       -1.92073345253986
C            2.79213914814996        2.58671482584182       -1.10365557674659
O            1.72013918054327        3.11054482843877       -0.87320352571556
O            6.67298080139034        7.08230910917393       -5.80548950343042
C            7.97517301842733        6.76530533068938       -6.28450289238956
O            8.43367888804455        5.52494792565152       -5.75794406283369
H            0.50179459197074       -0.34875862615743        0.62185781026562
H            0.93576116528535       -0.10697136555985       -1.07051003623459
H            0.57715741063463        1.27914316730939       -0.05524670891013
H            2.98426204267441       -0.58617139204504        0.31445496994683
H            2.62795060080103        0.78887016738335        1.33300514549203
H            5.37138409818908       -0.36517551559232        0.19636958485015
H            6.44646417049561        0.15100925342721       -1.09464562439581
H            5.08618038652572       -0.91098391839542       -1.45982182180515
H            6.80685404139382        1.79766719339656       -2.66277346737340
H            8.11035411624919        3.22703630029847       -4.18917251187966
H            4.37352877018921        6.50005372075488       -4.27524555834748
H            2.15274612226640        4.64004205175707       -2.03019465334976
H            8.67078480106592        7.56094113073614       -5.98392575934790
H            7.94661839353259        6.69939710171320       -7.38092725831730
