33
 energy: -6.040565603310 gnorm: 0.000994078113 xtb: 6.5.0 (97a52f5)
C            1.45032471175525        0.56071361263223       -0.32292193878550
C            2.35940883519148       -0.50531484755751        0.26673423985314
C            3.23547459556093        0.02369246659455        1.35805054617888
C            4.52760812685579        0.53481682876589        1.19636731827089
C            5.29141469202914        0.59713448404629       -0.07322716047940
C            4.96426386186458        0.99703100863085        2.47028092693327
C            6.14992078122257        1.58746449105626        2.87361145884291
C            6.28042603949939        1.94694461171266        4.20349174451654
C            7.35230755195441        2.55179238427522        4.90439452630828
C            6.96368239379973        2.69708557691465        6.22713413586770
C            5.66231013555733        2.19478435550283        6.37409981719775
N            5.27749246022549        1.75636028797657        5.16659662460334
B            3.91617195703721        1.12567676315843        4.83096245504448
F            2.91355912342739        2.05390513062466        5.07333231827677
F            3.74455929493398       -0.02113033535874        5.59300127918015
N            3.89692291868876        0.74633040757027        3.34087308596319
C            2.85829375118034        0.16706728702858        2.71497095663399
C            1.56784689510679       -0.16699188287474        3.34485299147311
H            0.81856220153868        0.16398368422394       -1.11976638319063
H            2.03089174674137        1.38537430658060       -0.73805173974886
H            0.79462390978259        0.98241448407627        0.44039283996771
H            2.98869950601807       -0.94437611177112       -0.51632944193595
H            1.76552269752677       -1.34003303524275        0.65764097147293
H            5.43198532824421       -0.39982630453088       -0.49055257549657
H            6.27769466471149        1.03498366338440        0.07762720564336
H            4.76779266931464        1.20416814389520       -0.81176287451292
H            6.94938295350680        1.76257607788031        2.17926521851858
H            8.29654632178059        2.84380873512137        4.47732907899795
H            7.56118923137615        3.12864175957545        7.01393391900665
H            5.06018499043192        2.16014493760373        7.26677209423042
H            1.67962584322811       -0.21641752266035        4.42825834322752
H            1.19659503222419       -1.13113561455182        2.99897139430818
H            0.81880477768746        0.59230016571482        3.12022662363375
