114
 energy: -22.185158702724 gnorm: 0.000758380563 xtb: 6.5.0 (97a52f5)
C            6.19226670432914       -0.66583551095259       -2.29280889237160
C            6.32698566002770        0.12200873067049       -0.99918536635403
C            5.22533427868196       -0.16857997973031       -0.03034900267379
C            4.08442175109243        0.54023732514395        0.10376493840885
C            3.70564517870951        1.76240882944279       -0.64165829178369
C            3.23938612213506       -0.13069648281526        1.16770351580360
C            2.92570000804139        0.77688910977781        2.39542062126881
C            1.54716058466358        1.38476094054645        2.27524077101079
C            1.37412521891465        2.72882948355577        1.98240565969435
C            0.11045109289007        3.26406395384036        1.86747107075604
C           -1.02111316869988        2.47020040223213        2.04588644601761
C           -2.37968516940294        3.04475923727124        1.92269791995280
C           -2.69736175398129        3.91568654663101        0.88036412725128
C           -3.96119490516097        4.44219249466327        0.76319013646966
C           -4.95826310595810        4.13075640135208        1.68631678564777
C           -6.29339772003150        4.70077420944191        1.52202722480590
N           -6.69036297534883        5.28136465069380        0.39770938240899
C           -7.96081661656241        5.69266395797849        0.60903995805039
C           -8.84425361449604        6.38012028798994       -0.30011400827925
C           -8.43231509752235        6.69542038904770       -1.59682247100241
C           -9.27564613377200        7.34578805473587       -2.45774948114322
C          -10.55136437518682        7.69647881841814       -2.04043110342221
C          -10.97510766713117        7.39665946072608       -0.76959730281273
C          -10.14057429484312        6.73214381230022        0.14010430291663
C          -10.56741825200608        6.40384490452383        1.50540341814559
C          -11.83947306997060        6.74052448765880        1.98912259004950
C          -12.22307261721798        6.43194431009127        3.26996876411199
C          -11.34999826614372        5.77448955442581        4.12354477345399
C          -10.10037730419718        5.42956067232043        3.68570019013849
C           -9.68485240027394        5.72938805946181        2.38410081119281
C           -8.37501633321308        5.37299039793385        1.90420474538755
N           -7.30554662317310        4.72823152005313        2.50005897301189
C           -7.23168730417612        4.28154597625872        3.87143744841350
C           -7.74144771590512        3.04674591540011        4.24310011799212
C           -7.67622458105024        2.63262309114114        5.55448127734774
C           -7.10274978191192        3.43198147943743        6.53570060138584
C           -7.05388510707766        2.93468197319867        7.98887502539116
C           -8.49054520107730        2.71716364941972        8.49908091737869
C           -6.27480471194335        1.60723829740777        8.04827325648300
C           -6.35580038954574        3.94746036236107        8.91772811243087
C           -6.59684531546879        4.66891412631989        6.15271820130793
C           -6.65922924514499        5.08815950525171        4.84247210199446
C           -4.63897506814821        3.25919216254157        2.72695058281082
C           -3.37870919825649        2.72545564684862        2.84217282490524
C           -0.83934284051803        1.12042572447848        2.34051341397505
C            0.42591263908194        0.58977103266266        2.44841068238528
C            3.07472875837097        0.03961593092445        3.69915979354525
C            2.93652366763311        0.53255530173802        4.98077724995518
C            2.62141997109386        1.93518454354741        5.34450768028587
C            3.04568363474206       -0.58268705799462        5.89605492888249
C            2.85966897926568       -0.52309635553376        7.37805908443765
C            1.39470627133247       -0.56194286926337        7.78403743361982
C            3.24000345461019       -1.72810649163238        5.15098962320073
C            3.36887254153118       -3.11349357477704        5.63843910276356
N            3.27031272105420       -1.32310935368974        3.82853486812632
B            3.45459593771546       -2.20377390852685        2.58530730448717
F            2.21120550132001       -2.67153688453934        2.17206139883346
F            4.32882500922289       -3.24495613862696        2.86358887309200
N            4.03954538687921       -1.27300387475281        1.51010954689734
C            5.17926692637183       -1.32366797487016        0.87178826270108
C            6.19485318215597       -2.38717998781505        0.98858990631375
H            6.99940256237766       -0.44516285060282       -2.99455334374368
H            5.24855825541269       -0.44150303461984       -2.79277781933187
H            6.20549681844552       -1.74009593482753       -2.10144978753165
H            6.34478607379776        1.19864001968785       -1.20887801576533
H            7.29080686056881       -0.08893198476587       -0.52016573450530
H            4.29921157621468        2.61716098184708       -0.31542357304413
H            2.65381015838894        2.00387016072706       -0.48474654943850
H            3.85951774447624        1.63129414593368       -1.71321683189734
H            2.30013996981323       -0.49200596392369        0.72483256749800
H            3.66537181254226        1.58944187291996        2.39547749283964
H            2.23916770533643        3.35529720793680        1.84791219810754
H           -0.01466954441916        4.31081821699824        1.65018727383174
H           -1.94169069048297        4.15996686488341        0.15387907921336
H           -4.19990202527650        5.10571265551510       -0.04938198567702
H           -7.44044880170281        6.41751871503424       -1.90759864474792
H           -8.95042944171949        7.58408702319637       -3.45729668206491
H          -11.21269207487459        8.20769842879776       -2.72102945543276
H          -11.96859687283638        7.68024529240528       -0.47426756005193
H          -12.53450113017795        7.25360449773922        1.35011761897762
H          -13.20679008416123        6.70270337068531        3.61765172721960
H          -11.65594278023326        5.53641623595249        5.12928970930626
H           -9.42365952772348        4.92127433167129        4.34629404129294
H           -8.18969626702630        2.42151222194444        3.49059340909205
H           -8.07937970108761        1.67222082964289        5.82458563847702
H           -9.01207163081733        1.96773292775157        7.90556279177954
H           -9.06199275649439        3.64332504149481        8.44582430853927
H           -8.48942985626660        2.38006356240350        9.53514808354419
H           -6.76057438846305        0.83487792958420        7.45394315563307
H           -6.20407461410567        1.24255907929775        9.07252510479989
H           -5.26304133771666        1.73783988521350        7.66574716257376
H           -6.88783893375252        4.89806461500616        8.93290321284296
H           -5.32971544443281        4.12879133999477        8.59951923299338
H           -6.32217465456642        3.57355685180753        9.94064332382802
H           -6.14878794672457        5.31619162406648        6.88518235985760
H           -6.26689458838056        6.04772202859283        4.55385459642547
H           -5.39396427557780        2.99682537591547        3.44314557844041
H           -3.14716104001380        2.06005163922932        3.65598258569104
H           -1.70242671787085        0.49049535498548        2.46995126540690
H            0.56185323756119       -0.45509136249263        2.66899603017144
H            3.02097560816934        2.63014832292792        4.60539202988185
H            3.05031560441566        2.19848936289832        6.31154501584282
H            1.54292995940602        2.08750337474404        5.39886061840344
H            3.34073822930600        0.38384337772115        7.76387642567359
H            3.40546775881915       -1.35497913499302        7.84012335757505
H            0.84706073646250        0.28109639703474        7.35954984398864
H            1.26719440569183       -0.52740674855920        8.86810330935274
H            0.91150133598941       -1.47137415872686        7.42290850639831
H            2.53465580460688       -3.37939795913046        6.28810289502976
H            4.29505437025814       -3.24416295779501        6.19862890313220
H            3.38007385253758       -3.81238204086911        4.80218126173671
H            6.26668086875058       -2.73577849824018        2.01862044475290
H            7.18053798633753       -2.03381419112698        0.68618911031054
H            5.93166457352052       -3.24071361998706        0.36344388492058
