82
 energy: -15.716016911464 gnorm: 0.000736107573 xtb: 6.5.0 (97a52f5)
C            2.58183897781674       -1.92888168325455       -5.60113634848047
C            1.54079550308028       -0.84832788602738       -5.84844018102611
C            2.02815596762277        0.51679692970786       -5.47629047900809
C            1.97951695958772        1.09934025291025       -4.25283473903659
C            1.42406934823468        0.53366885932278       -2.99670189685017
C            2.62929993139887        2.38633387642281       -4.38964234877008
C            2.81281675561000        3.27125556463883       -3.32394597810970
C            3.46649419450823        4.49658159047022       -3.38117381379178
N            3.97648430619581        5.13800320071743       -4.49068325929675
C            4.49095290241575        6.36083512373001       -4.13074898977712
C            5.10043496003286        7.31464699937671       -4.97730795320123
C            5.23270161742122        7.20124895888541       -6.33397053565263
N            4.78921821798141        6.17825680135320       -7.09044228396780
C            5.00972226515941        6.43393027467303       -8.39464084298960
C            4.91372260272476        5.45982648571549       -9.36918830069039
C            4.43913463171671        4.15914655321745       -9.09513946729825
N            3.91780744997906        3.45858404663434       -8.05248055276189
C            3.60982225830604        2.18075991127139       -8.49359062418066
C            3.00487625458207        1.21898267383119       -7.68476331943022
C            2.71385325281523        1.45385206282497       -6.34116669912417
N            3.04790194253441        2.57131719497087       -5.65298963335918
C            3.97879019760029        2.07754688437875       -9.87077652975477
C            3.82828578446959        0.90198551648518      -10.75644753941529
C            4.49509459673148        3.31563698073600      -10.22821760261437
C            5.06980701223926        4.06049547814929      -11.35322294297190
O            5.26276561223281        3.65016860011951      -12.47308726486490
C            5.36365270715133        5.45232550109553      -10.81550859926398
C            5.47648775934891        7.86005536446452       -8.60846493703050
C            4.36131543734296        8.79938707873188       -9.10764168709455
C            3.79505966762791        8.45613308338652      -10.47490079114912
C            2.75112410114215        9.44724375124560      -10.90701378202447
O            1.64600678923059        9.40599913796145      -10.41112040692982
O            3.15269283270006       10.35879192145710      -11.84110923769176
C            2.10742604344808       11.23056145871523      -12.14645257750904
C            5.92397748085182        8.25266856846772       -7.18217236284939
C            7.44037996179799        8.23608669449863       -7.00856212312571
C            4.31422886762406        6.50985258109722       -2.73523257576263
C            4.74348085637361        7.67466180553544       -1.92200359367145
C            3.69200740268672        5.35993497411008       -2.25742322364200
C            3.34435110800453        5.08257328731122       -0.86341907653789
C            3.77629309384481        4.03165133378843       -0.14964930500139
C            4.72466322775915        3.02569751114516       -0.66717131944183
N            3.30101389792767        3.87721463641501        1.21792637216651
O            2.50701822135115        4.71764327213988        1.67441467056898
O            3.70519456703661        2.90856063885290        1.88357944331047
H            3.49131073587858       -1.73336914385801       -6.17096272868380
H            2.22001888951923       -2.91957181935973       -5.88289839916276
H            2.86541407800383       -1.96728443326709       -4.54856045670664
H            0.62139706293688       -1.06704823617804       -5.29275322808400
H            1.23572263882681       -0.84607228364973       -6.90151979437336
H            0.88600194378500       -0.39582803809310       -3.17914118813749
H            0.72748607916390        1.23175545808341       -2.53172637767264
H            2.22035144007754        0.32236781573069       -2.28267878774590
H            2.42002822188858        2.97582280342262       -2.36919906499538
H            3.96101998022687        4.76280124005693       -5.44450063660521
H            5.48673201249451        8.20523539291648       -4.51600624963937
H            3.74182546753607        3.80634256019839       -7.11154920488347
H            2.74927812217449        0.27131104973803       -8.11909090280631
H            4.34488358903821        0.03511200110428      -10.34398548383891
H            4.24779314569005        1.10724973180715      -11.74193027494755
H            2.77683988514299        0.64431206212822      -10.88499950976224
H            4.83202696631510        6.19735013812891      -11.41080879526288
H            6.43392455927953        5.66753051949254      -10.88720846366274
H            6.32762886135746        7.87155665382158       -9.30308547897319
H            4.73499003109601        9.82952719635402       -9.12276477856564
H            3.54678674669107        8.79678966951206       -8.37522281318236
H            3.34316557614020        7.46071630918678      -10.45658263035809
H            4.59348793239744        8.43550136954481      -11.22212966937666
H            2.44807380741494       11.94965497639541      -12.89457234796898
H            1.80107246858888       11.75744263813359      -11.23996340477853
H            1.26442794976724       10.65844506013722      -12.54043388971948
H            5.52256193894219        9.24391891096330       -6.92187701531235
H            7.83957427767541        7.25203345249901       -7.25290692894348
H            7.72596994657401        8.46104559979233       -5.98074500294285
H            7.92416855118128        8.96373776311690       -7.66075538628170
H            4.22350301559552        8.58005144245392       -2.23582863623662
H            5.81570881748501        7.84433369375428       -2.02254818085087
H            4.53098813153255        7.51628349303224       -0.86471157678019
H            2.70956716294469        5.79131083456832       -0.35836279985767
H            5.39084153344043        3.45683991140299       -1.41513071405221
H            4.19871272968605        2.18547849455479       -1.11984456575755
H            5.33958817733854        2.63181186074897        0.14268060609352
