31
 energy: -6.280512449637 gnorm: 0.000855398846 xtb: 6.5.0 (97a52f5)
C            0.92724315142248        0.17276784407752        0.29079346984015
C            2.33423613120863       -0.38313950955478        0.44141313829677
C            3.20951173869935        0.48814912028205        1.27872683589127
C            4.43830674240660        0.96595486145296        0.97240961718162
C            5.17823537569556        0.73852725054342       -0.29204664401120
C            4.89219616979344        1.78129400493260        2.08480366470618
C            6.03821586577914        2.50093381744723        2.23536994089044
C            6.25017626081580        3.24476129446125        3.43241435604591
C            7.41751901622267        3.99574680726228        3.62979186489773
C            7.60472399840083        4.70746638912879        4.78615063008132
C            6.63629795507463        4.69378300047132        5.77912350951160
C            5.48416661110927        3.96611326886370        5.60903924034774
C            5.26928526205480        3.23528865198357        4.44745430045807
C            4.03021389541998        2.46439766494477        4.27810681282584
O            3.17196082491373        2.45825022320024        5.14223985810588
N            3.90833272759312        1.75287098815522        3.07128452990187
C            2.83940953968352        0.95279754191730        2.61948604849485
O            1.80447449173700        0.68309221984364        3.19443169614462
H            0.29070315875670       -0.47569304866794       -0.31470925947915
H            0.94417859331886        1.15697289334391       -0.17958759934055
H            0.45188193213605        0.29068178183866        1.26611574639256
H            2.79133667165793       -0.52058486001497       -0.54518152392549
H            2.30197295244446       -1.38178241108245        0.89325435805004
H            5.12621720213809       -0.30765060232759       -0.59278983351731
H            6.23163482103348        0.99468245353662       -0.18451443788704
H            4.76471396067877        1.34599463442424       -1.09692886816530
H            6.77888668321606        2.51659749654769        1.45836501058184
H            8.16880278849194        4.00705695916999        2.85915810790942
H            8.50661514875609        5.28050281591736        4.92554463603164
H            6.78898563266870        5.25596462963290        6.68580484273776
H            4.72693469667208        3.95117181826821        6.37412595100040
