85
 energy: -16.651296172757 gnorm: 0.000684073681 xtb: 6.5.0 (97a52f5)
C            1.00105455348721        0.02779755612918       -0.33440899970367
C            2.51322614756059       -0.06262532846663       -0.16373867443751
C            2.92845949169873       -1.08407041381933        0.83193257879447
C            3.73472922684006       -0.92480318378892        1.89537509428873
C            4.31712772555631        0.36673284948046        2.29894776752706
C            3.63539896694295        1.46337737277029        2.69213965746719
C            2.17495278244405        1.58385010104153        2.81988091530987
C            1.45669241829207        2.55776829515404        2.23573370755625
C            1.98085515320945        3.70235260536991        1.44223356504440
C            0.90640174127901        4.49587930003558        0.70800871771650
S           -0.30809935499791        2.30761653966899        2.54224473466044
O           -0.87036813090739        3.45773938490766        3.33665051583498
O           -0.90871019323795        1.88143195205207        1.22457238077043
C            0.00456196921764        0.86152265669627        3.54926849242364
C           -0.89651206617366        0.06472317963262        4.20380996621967
C           -0.44005901553743       -1.01623657774705        4.95916338228426
C           -1.39231803830979       -1.89615461076719        5.67119124869161
C           -1.17841429504111       -2.25666546169785        6.99984755275095
C           -2.06475431514312       -3.07136042771991        7.66342185496512
C           -3.19921265877164       -3.55774789441708        7.02040167561525
C           -4.18350020522680       -4.43747013494617        7.68566942788521
C           -4.00689063748230       -4.80219299351118        9.12306236711585
O           -5.13230463677107       -4.86139463872290        7.06869372255865
C           -3.41220710941732       -3.20085428738222        5.69602235319808
C           -2.52857040133437       -2.38532053904367        5.03078497776270
C            0.93680991407479       -1.24205563262813        5.03336073500275
C            1.83007354072903       -0.43334932550509        4.36885402797044
C            1.36378074334298        0.62548836207400        3.59636552380204
C            4.58513789484786        2.60397026268856        3.00229643443609
F            4.25653133369314        3.19502914859614        4.15946645130578
F            4.60198841789639        3.48056333919204        1.98827670614675
C            5.98327687571954        1.93681762897549        3.12090824089480
F            6.93308797109929        2.71534383849164        2.60381597708910
F            6.22469675464572        1.61959847761951        4.39527411049320
C            5.80978230627796        0.63789120963686        2.28579948840084
F            6.21968412525703        0.85327553946332        1.02668878824604
F            6.49474269301655       -0.35779294820244        2.86219417297909
C            3.97020110648337       -2.16712861606067        2.65769535119732
C            4.76667497513826       -2.31852359457434        3.78977196680419
C            4.86455316182293       -3.55027636710755        4.39587836886258
C            4.18001283274075       -4.66207785353794        3.89694843550707
C            4.30111835698528       -5.98428729721139        4.54884285647361
C            4.22686156825891       -6.11114216367832        5.93439415775157
C            4.34026495836144       -7.34030248869604        6.53966077308995
C            4.53400964777802       -8.49019178128145        5.78000641110775
C            4.66085887704855       -9.83604554271589        6.37840773305205
C            4.61949176721527      -10.00021503874902        7.86217447730385
O            4.79703982494516      -10.80484842808999        5.66888511365206
C            4.60794778050586       -8.36525384841993        4.39967163377410
C            4.49435682501484       -7.13792651845469        3.79220563657357
C            3.38809379506101       -4.49942706926462        2.75940929600145
C            3.29929516370824       -3.26867318860123        2.16593366484632
S            2.36613836676152       -2.79473392623907        0.71210028556055
O            0.88533064689743       -2.81841926784500        0.99551589745752
O            2.93422322464365       -3.44288336849470       -0.52364725337606
H            0.71160491091048        0.78627956036251       -1.06423479209097
H            0.51223156446292        0.27435941735721        0.60910317836444
H            0.58647369531754       -0.92713126006423       -0.66274593122563
H            2.92410844870346        0.91145054535925        0.12634203673289
H            2.98828174767752       -0.30110283802433       -1.12424142371135
H            2.72589928348807        3.32794653304142        0.72883107206149
H            2.54101681278966        4.36162543630479        2.11903062612902
H            0.34452489430624        3.85400436399100        0.02706449989979
H            1.32865465424822        5.31571340043783        0.12369052263520
H            0.18885261862036        4.92266525687370        1.41148096970388
H           -1.94830204545288        0.28299550062377        4.14637637268826
H           -0.31258371341471       -1.87363724467259        7.51244340754056
H           -1.87891339523633       -3.33359279349117        8.69037155217428
H           -3.07761630772816       -5.34884730219686        9.27993541887335
H           -4.82851526871297       -5.44269854756266        9.44128839324450
H           -4.00864001401992       -3.91635093043868        9.75761550309338
H           -4.28944770575967       -3.58125220395084        5.19887443046454
H           -2.70123491008322       -2.12839865746666        3.99965930484348
H            1.29691813425729       -2.07485997858164        5.61237182613599
H            2.88778414417715       -0.60536242018184        4.44558315497022
H            5.32118917912586       -1.47556721901769        4.16432494489815
H            5.49856517426231       -3.67271779632468        5.25722010074650
H            4.06249852559785       -5.23104323253718        6.53226631655882
H            4.27528808337398       -7.41279864008937        7.61131393304165
H            5.41007605056375       -9.42591407112519        8.34518115248938
H            4.76500261591109      -11.04947934604593        8.11789888516217
H            3.65658878725464       -9.68803340135188        8.26651074031239
H            4.75932212134235       -9.25654713469395        3.81301407973172
H            4.57002774716814       -7.05716161413740        2.72139474271903
H            2.83962959863952       -5.33133222473994        2.35422053704086
