79
 energy: -15.207877362569 gnorm: 0.000584794088 xtb: 6.5.0 (97a52f5)
C            0.71837272679392       -0.21039622559400       -0.24710799519587
C            2.21475560214758       -0.11210534824379        0.03037569185543
C            2.57542697255374       -0.47533057436990        1.42558989952176
C            3.31791744999156        0.22877164920659        2.29756316183067
C            3.84243528433877        1.57920046727220        2.02704962351883
C            3.10661715514543        2.69041956254024        1.81083613943558
C            1.63756032975712        2.77279879607961        1.81739136272432
C            0.91481235818855        3.28680757979876        0.80764337438264
C            1.43864987714002        3.94545399516240       -0.42017380664050
C            0.37657264191698        4.23382535942614       -1.47518414374854
S           -0.85259848223317        3.07175976538885        1.13110439155143
O           -1.52400989254421        4.41323336250245        1.26493646446996
O           -1.33290319785531        2.03372731088439        0.14738451274253
C           -0.54034652763196        2.29724649236562        2.71513839247626
C           -1.43927862981761        1.80920882626484        3.62636648866055
C           -0.97840661057170        1.24741546223180        4.82081677152769
C           -1.88621194345370        0.68829262106774        5.81136206123911
C           -3.25279594786325        0.65150241925978        5.76132026187505
C           -3.85429967347773        0.04039290383273        6.88401059030457
C           -2.96744399385023       -0.40403776218058        7.81732182487891
C           -3.34786948400368       -1.06477194659398        9.06247947493463
C           -2.28442722811449       -1.49310184652166       10.01765739801960
O           -4.51186891759861       -1.28043295520628        9.31205235724740
S           -1.34954905058586       -0.06122061923712        7.28641003348247
C            0.40006951407509        1.23320853737262        5.05434744686084
C            1.29022950136918        1.72939663481125        4.13210549355987
C            0.82281149615394        2.24264218655261        2.92700506947739
C            4.00137963930947        3.88475380014358        1.54754837425207
F            3.59534597300678        4.94808415051896        2.25480260737931
F            4.03950298263495        4.15209250785262        0.23484105295765
C            5.41298963458514        3.43782095590069        2.01762257622737
F            6.35974667401991        3.90284507053146        1.20323158070864
F            5.60553681454380        3.81254447663848        3.28430916016262
C            5.32433068184332        1.88845923307271        1.94161362564512
F            5.80893827781832        1.46658046546769        0.76414945105930
F            5.99394538805969        1.35201872851094        2.96935664434785
C            3.50686409169490       -0.44168319469498        3.59889615547701
C            4.22794805980263        0.03398577378397        4.69123813102369
C            4.25223901514396       -0.69285996425122        5.85862951360469
C            3.57437748296152       -1.91088112108406        5.97823935641760
C            3.61161153720804       -2.64766937151834        7.23314433931028
C            3.02594463527379       -3.85397656527098        7.50567066456990
C            3.24291534072746       -4.31727212046892        8.82242051851036
C            3.99738144284819       -3.48100388820952        9.58795813067560
C            4.36175234532652       -3.74281937998838       10.97656588637505
C            5.20406683337364       -2.74937288874636       11.70514552415990
O            3.99996192845813       -4.75795523581151       11.52679826611512
S            4.44361738785708       -2.08642579771576        8.65317328637662
C            2.87178481001327       -2.38643341261396        4.86761385923680
C            2.85102533668163       -1.65128217838058        3.71296913174719
S            2.02660252910149       -2.02639634905163        2.16767805989792
O            0.53087703221872       -1.94966922945148        2.33939376495133
O            2.67456804853616       -3.19497741850876        1.47341930132239
H            0.46732347691210        0.07566284373739       -1.27040762408602
H            0.15028427723625        0.43469767146977        0.42475186700397
H            0.35573102817743       -1.22739884251766       -0.08560060567544
H            2.57707218479133        0.90031310312326       -0.18361097720581
H            2.76964448857589       -0.76766656320578       -0.65343291635131
H            2.23289915010663        3.31966686832077       -0.84687783967742
H            1.93919509232443        4.87729185803958       -0.12359431295269
H           -0.12497862217872        3.31522828524092       -1.78590994211843
H            0.80009543183401        4.70203330767377       -2.36602457068378
H           -0.39245343037267        4.90139519373252       -1.08120307416800
H           -2.49095203877205        1.85930679867408        3.40987828015526
H           -3.82939114732934        1.05282498468260        4.94215360582656
H           -4.92214164006433       -0.07241488363813        7.00750145784749
H           -1.41687155803228       -0.83479722348083        9.96885782979255
H           -1.96176800325820       -2.51141629045685        9.80068933596240
H           -2.67123659845633       -1.47108588233751       11.03643805984052
H            0.76446427467491        0.82025245539693        5.97895916305381
H            2.34537370736252        1.73632690934974        4.33478906852546
H            4.77580726365311        0.95662231130308        4.60484940783165
H            4.80706877671399       -0.32462821409182        6.70426553145825
H            2.45124264732723       -4.41331612442873        6.78360519066004
H            2.85769866500868       -5.25286074343462        9.20253536353910
H            4.86633595283927       -1.73034593422528       11.51547260656203
H            6.24785161355721       -2.83197271499373       11.40227129223919
H            5.14698506232342       -2.93273972560736       12.77792784430711
H            2.33970469207710       -3.31948314891852        4.90828465468497
