40
 energy: -7.441403368884 gnorm: 0.000648518786 xtb: 6.5.0 (97a52f5)
C            1.09249752938451        0.00792485278348       -0.12986920155417
C            0.27120738438365        1.06813591175885       -0.16010014901265
C           -1.15998061271805        0.91691899824321       -0.12232815407737
C           -2.09683902484420        1.94717751416937       -0.16432881973752
N           -3.31413645203754        1.35908157222437       -0.10280908068869
C           -3.08776000067332        0.00359655037485       -0.02524532998161
N           -1.81023739174480       -0.27633236013163       -0.03569165062901
C            2.53966774406105        0.04254090748540       -0.16017263145565
C            3.27089707260650        1.25445321315897       -0.16380528683597
C            4.62202970846807        1.24419438789208       -0.19142924362020
N            5.33233554673091        0.05629036206721       -0.21871991561315
C            6.71629357866342        0.05581918019149       -0.25237878803051
C            7.41810553373765       -1.09883583737746       -0.27855447495655
C            6.75285637192820       -2.34817259870653       -0.27265852054319
C            7.46466632449538       -3.60858951057494       -0.30348247981857
C            8.79618408388485       -3.77078927271089       -0.30585307639737
C            9.39786624571385       -5.07835021926921       -0.34231519657850
C           10.76324446433467       -5.35571988127661       -0.33152052065768
N           10.87975018819772       -6.70329206437699       -0.37669646222239
C            9.59768341973584       -7.20292766579741       -0.41443291448185
N            8.70370621010352       -6.24853679278012       -0.39477264349771
C            5.37724044511268       -2.34629285033396       -0.24048017237249
C            4.64930208821930       -1.14752819546691       -0.21349353262753
C            3.24689861160545       -1.13755183625940       -0.18288104567252
H            0.63237782551776       -0.96287180199889       -0.07976215539013
H            0.66863716759231        2.06359851459956       -0.22024576777115
H           -1.90098163984637        3.00692031517618       -0.23146564600324
H           -4.22338672343435        1.82381564400638       -0.11174513533404
H           -3.86221952824827       -0.75031002372580        0.03866851862169
H            2.74692395422145        2.19282151128498       -0.13882355944599
H            5.17780955146399        2.16607845853116       -0.19300616033891
H            7.22249851768681        1.00580913061700       -0.25869668347661
H            8.49228973498236       -1.06746070625873       -0.30786635972340
H            6.86610778106073       -4.50166356897434       -0.32684377220565
H            9.44894901137609       -2.91906182973924       -0.27707581086088
H           11.57473561019206       -4.64435831027399       -0.29477919973309
H           11.74466939516003       -7.24628468754260       -0.38424229227169
H            9.34470635024615       -8.25478743576401       -0.45870208922890
H            4.84557541616519       -3.28060767476080       -0.23649020222802
H            2.71755850650897       -2.07319190046284       -0.17989439354672
