91
 energy: -18.080962804661 gnorm: 0.000844156656 xtb: 6.5.0 (97a52f5)
C            1.09320271099734        0.15582530075051       -0.25026496076750
C            2.12212192597791        1.27010249257004       -0.16002750283323
C            2.93070881379219        1.39045937263000       -1.40178064219207
N            3.98789512639491        0.58692657664027       -1.72182432244459
C            4.46394415564479        0.94536639574783       -2.94764062644094
C            3.69827056432323        2.00051930019278       -3.47591815260856
C            4.04403371534980        2.48875439127261       -4.79018796277924
C            3.36217187093582        3.54009541093863       -5.42585732062671
C            3.72183609741890        3.96275789151079       -6.67561858587101
C            4.78296968575080        3.37408426607538       -7.39395117277142
O            5.15787011877493        3.79320890975030       -8.64519610644488
C            4.51806349887845        4.93937850219997       -9.18497261641328
C            3.53114792505793        4.79222683803408      -10.17507457724282
C            3.16207735310256        3.43737453021569      -10.65483373853468
C            2.89394780470065        5.91309576130935      -10.66830202757810
C            3.21271587054088        7.18655456615826      -10.21942904345166
C            2.49251806414050        8.37989179126223      -10.74284630052284
C            4.18890992968219        7.32139604918604       -9.24286104689379
C            4.85397659441710        6.22639450029643       -8.72811277287613
C            5.89035425488980        6.39438750184959       -7.67858428331072
C            5.49979549295877        2.28731347142316       -6.79332993074263
C            6.54330571001873        1.63870280291950       -7.45676844212322
C            7.24686065037295        0.57140211401878       -6.89507720305192
C            8.29635818193644       -0.09925402205114       -7.60546026569279
O            8.61437948585049        0.33614120285457       -8.86682259492321
C            9.58132549752269       -0.39579937161935       -9.60442988420846
C           10.88602944737833        0.10876965265288       -9.74329735719285
C           11.24801849911560        1.40234748749426       -9.11263723916343
C           11.82571790411191       -0.62486540210442      -10.43936889181050
C           11.51055292791789       -1.84540487427518      -11.01899439363300
C           12.54502718773339       -2.63690522637496      -11.74039169569667
C           10.21992218804492       -2.33405402264441      -10.87756159963586
C            9.24965310342742       -1.62894046482421      -10.19369829604905
C            7.87587489640628       -2.17366102620597      -10.05329625661285
C            8.95545189396129       -1.17645798495892       -6.97804646756510
C            8.61950485012546       -1.60897525477838       -5.72492298059804
C            7.59489849683691       -0.98687873957033       -4.99154209670064
C            7.19305442576209       -1.41365623952996       -3.67172655058245
C            7.52460225070528       -2.44925326225257       -2.76210738329593
C            6.70903668694673       -2.33964068358617       -1.62854927450102
C            6.67525301085320       -3.28245851391425       -0.47568815581376
C            6.46053139282609       -2.59007463948108        0.85840629139799
N            5.88152930080728       -1.26615303861809       -1.81938258700960
C            6.16224228234432       -0.70204156908938       -3.03183531952777
C            5.51241603948375        0.36113393552349       -3.62870228480070
C            5.85985670069149        0.79208102059217       -4.91411509502227
C            5.12806114703904        1.86456494057931       -5.49097366603278
C            6.91116146483002        0.12022208821899       -5.59251497651543
B            4.73579489933100       -0.58107318268565       -0.97832724292366
F            5.31301148630991       -0.02604289191515        0.15905615384782
F            3.80029199609766       -1.55873101251541       -0.66172211058432
C            2.72564144696089        2.26548946148826       -2.47637015625287
H            0.50384243034949        0.06451458632590        0.66427748900594
H            1.57847803093453       -0.80488731901721       -0.43014012224712
H            0.40122499076783        0.32653183210012       -1.07641693919561
H            2.80354679706723        1.09112115924787        0.68093019504031
H            1.63609945897867        2.23083080214042        0.04928365767462
H            2.54513333171561        4.01293293786198       -4.90957612753901
H            3.18181793354515        4.76776699054077       -7.13970849653634
H            3.82931822114542        2.68320459058123      -10.23614659408718
H            3.22721740473140        3.37669436448709      -11.74181799503906
H            2.14297089575904        3.18482853370400      -10.35986005054921
H            2.12906435680459        5.79471483270225      -11.41503574529450
H            2.16209404326372        8.22104228891874      -11.76992217286697
H            3.13463608796195        9.26136052245875      -10.73476681570898
H            1.61321561950134        8.59787477246944      -10.13576770295801
H            4.43302598594653        8.30269345325877       -8.87665996909624
H            6.53292236500328        7.24872580209087       -7.89435495420217
H            6.52336871441915        5.50884052010342       -7.61385831373504
H            5.43244697837741        6.55218915399372       -6.70153107873580
H            6.80881148825701        1.96787227803862       -8.44473910099958
H           10.35843685165837        1.91758566131046       -8.74880852937507
H           11.74769510205915        2.05923211009549       -9.82560683449220
H           11.91670255895789        1.24771123810933       -8.26513938615434
H           12.82679739407723       -0.24233527419981      -10.52961992406043
H           13.32837044866718       -1.99163566238409      -12.13949861450129
H           12.10797007039665       -3.18290466405718      -12.57721374014197
H           13.01296486913687       -3.36114319197213      -11.07276033964856
H            9.96890588198487       -3.28596554834785      -11.31061882413155
H            7.52643806605444       -2.60527886485887      -10.99186910160049
H            7.17565634380773       -1.38862997661437       -9.76616496154336
H            7.84236705934185       -2.95063811896915       -9.28885213824175
H            9.74762568873106       -1.66652754083073       -7.51411738046788
H            9.14193152019026       -2.43846869560600       -5.28144755348736
H            8.26454834264067       -3.21258733079390       -2.92832480927701
H            7.61196283891842       -3.85327536225264       -0.45851716307103
H            5.88386469005191       -4.02117011094093       -0.65228975497471
H            7.23277263947223       -1.84107190825439        1.03956778236061
H            6.47117993465789       -3.29160292949266        1.69499353292138
H            5.50168622190541       -2.07054140047168        0.87460941287412
H            1.95229131721420        3.01095836512203       -2.53894912029598
