14
 energy: -1.959927272265 gnorm: 0.000646159876 xtb: 6.5.0 (97a52f5)
C            0.88779275694460       -0.00413127826749        0.06260851829548
C            2.40837770838980        0.02248608267768        0.05317588426160
C            2.97502471860320        1.36374754450924       -0.41852183462756
C            4.49561525226647        1.39043269211706       -0.42797700745626
H            0.49466432785442       -0.96597204573353        0.40140433372029
H            0.48261720034845        0.18253725246209       -0.93443006777819
H            0.48271727709383        0.76618077383674        0.72262682726169
H            2.79706968575402       -0.78102310721774       -0.58702209459784
H            2.79718597403176       -0.20343627574443        1.05534327990709
H            2.58633410882633        2.16723332137946        0.22170524536912
H            2.58621559933090        1.58964109157493       -1.42069554735972
H            4.90080367620044        1.20370614362009        0.56904488766242
H            4.88871673585709        2.35231033900783       -0.76669808272590
H            4.90070497849870        0.62018746577807       -1.08806434193225
