52
 energy: -9.260079091253 gnorm: 0.000651459274 xtb: 6.5.0 (97a52f5)
C            0.66193925402073       -0.38205915550906       -0.91080841494691
C            2.06379099816656       -0.81276987249301       -0.50521917241320
C            3.14092980733838       -0.26598436535452       -1.43681214543022
C            4.49755130268303       -0.83126979692509       -1.11658403715376
O            4.97236243685883       -0.62974544578096       -0.02165107045402
C            5.18003101852636       -1.63660543541372       -2.12912252473289
C            6.12601330145115       -2.61365738950397       -1.78439947853752
C            6.68923096399908       -3.46992807033629       -2.76330272517396
C            6.32414724235370       -3.39146292878061       -4.11835285625177
C            6.88630438884940       -4.28785822850629       -5.12085779410802
O            6.55878534480039       -4.23425358449125       -6.28525134432300
C            7.89469535827341       -5.31528566163018       -4.68132433929329
C            8.59042367916457       -5.99512910204501       -5.85688353794311
C            9.61101202565075       -7.03915833579631       -5.42706272339334
C            5.38606318544574       -2.40563818993922       -4.46188972737619
C            4.85646395994336       -1.52681649313421       -3.49024546753660
O            4.02074271614639       -0.60373553600379       -4.09454936195204
C            3.87944949521164       -1.05163019618434       -5.45522315834944
C            2.44163737232013       -1.55198565169526       -5.67265482887454
C            2.01662366736329       -2.52719843673528       -4.61648041775587
O            1.56091666178891       -2.12287731486694       -3.57076855493287
O            2.19158781475458       -3.84255862776322       -4.91572326261033
C            1.77517951743950       -4.64056842223123       -3.85274935177610
C            4.20309825237571        0.11014123265885       -6.40526190172152
O            3.74911315632202        0.07912354892667       -7.52439694331021
O            5.00275286464108        1.07475841913124       -5.90631093399447
O            4.82604476593512       -2.11556507143884       -5.69203216629839
O            7.58126607584688       -4.34018019128003       -2.15193041925477
C            7.54909074380714       -4.00077922993688       -0.77599732815095
O            6.63792497926155       -2.94016157318580       -0.53882735809036
H           -0.09857643663064       -0.77186196892156       -0.23116087662545
H            0.42381022721732       -0.74028952921566       -1.91483645675689
H            0.57093915028028        0.70512486871770       -0.92157121997820
H            2.12787467215126       -1.90883954224574       -0.49474652486564
H            2.28581611008361       -0.50158836632045        0.52409007393373
H            3.18355345891422        0.82574452136504       -1.37404907972974
H            2.87161381652527       -0.50508693996566       -2.47078283292991
H            7.39258371810823       -6.06216081218154       -4.05722932862721
H            8.63778389636100       -4.83704198294535       -4.03384722566061
H            9.06785693821556       -5.22690648309262       -6.47919279358849
H            7.82781621378270       -6.44792668422488       -6.50427487102251
H           10.39327074834761       -6.59399343653420       -4.81040389525461
H           10.09565165637042       -7.51208727873315       -6.28352577296662
H            9.14225944222944       -7.82787072466413       -4.83672409069691
H            2.37922817630410       -2.01785352406762       -6.65746070266844
H            1.76254326647366       -0.69803548301687       -5.66234402194405
H            1.91452700802835       -5.68937921023982       -4.12625232553800
H            0.71951956307279       -4.44115513391570       -3.65069768969378
H            2.37415145911616       -4.39962645051261       -2.97118038954716
H            5.21876341497141        0.88693283804980       -4.97211919553302
H            8.55445214483075       -3.68521425323312       -0.46231408093919
H            7.23411900450935       -4.88096531786048       -0.19742335323188
