120
 energy: -23.498420618452 gnorm: 0.000293670889 xtb: 6.5.0 (97a52f5)
C            0.67935963585210       -0.05857045735002        0.24148002805549
C            2.18610355431602        0.14309722557098        0.29224666621050
C            2.91044162121227       -1.03041609588045        0.95076362185954
C            4.45929680210184       -0.93186186119411        1.00434997202778
C            5.07849303914615       -0.92525258895300       -0.41544379964308
C            6.60697174098025       -0.92996355235239       -0.42147894474613
C            7.18781625085152       -0.92282450988036       -1.82631295398303
C            4.92169727568227        0.28128440641735        1.81994666197497
C            4.83344191227304        1.62862958135539        1.54495919395251
C            5.34478084110383        2.56275078744857        2.45026647497447
C            5.23036447447778        4.01196608918659        2.17375848500122
C            4.08353679207822        4.53745905607568        1.57819641719358
C            3.97087002889945        5.88477595715127        1.32472410490317
C            5.00080989866330        6.76497478915701        1.65443287666482
C            4.87669900070381        8.21704865349415        1.38678716450689
C            3.67405898479148        8.88615183301972        1.61271793063846
C            3.56022497668101       10.23763575589155        1.36643780457276
C            4.64339478222028       10.94869310107754        0.88954970853558
C            5.84220561110540       10.30359927563502        0.65903984000139
C            5.95931811918177        8.95222615452659        0.90471028361982
C            6.14891690300067        6.23982810417043        2.24670880552733
C            6.26138669143086        4.89245925400692        2.50131375594765
C            5.95925692433286        2.10234712779783        3.62167328119089
C            6.07467045613929        0.75661582957015        3.89196713686567
C            5.55592191815488       -0.15946364881475        2.98584741568721
C            5.59328237743987       -1.62506362893757        2.99571920528228
C            6.12181260818434       -2.50796830709167        3.92898881811022
C            6.03974549570514       -3.86175345007851        3.68741394290022
C            5.44625365707609       -4.36095763776346        2.52104253218923
C            5.36392920403428       -5.81985071354737        2.28158669832475
C            5.75583880744841       -6.36401450690769        1.05192188646731
C            5.68146118887556       -7.71802985878188        0.80919142297470
C            5.19961445727736       -8.55488498992839        1.80796770701592
C            4.79356991315908       -8.02546131356471        3.03561910313057
C            4.87998399787095       -6.67244541979356        3.27725611112951
C            4.27647559175340       -9.15441250325984        3.93475017104585
C            2.79535944642490       -8.91127540038922        4.32070061704351
C            1.87240760952342       -8.70803698120920        3.11878342208410
C            0.42501704478185       -8.47593358461022        3.52100658991605
C            5.18602132617379       -9.24821768185024        5.18933594766283
C            4.89002546978622      -10.40081261408161        6.14867634582824
C            5.77268410248648      -10.36796501688636        7.38700452520390
C            4.41265180517456      -10.38596497036875        3.03141357869005
C            4.02419865043193      -11.69193946093175        3.23719164200807
C            4.22872837592971      -12.64884516983449        2.23917895078631
C            3.81916451718871      -14.05452945163302        2.45487052818575
C            4.60643411243392      -15.11114707614487        1.99734857221348
C            4.22669705305806      -16.41732006742067        2.20300898343898
C            3.04267102263039      -16.72329968650273        2.87310869985694
C            2.63386096048315      -18.13024723724417        3.09446288191701
C            3.56979629605868      -19.09994057376145        3.45321779427092
C            3.18800262611453      -20.40838129179729        3.65903095904778
C            1.86544322918415      -20.77584701790675        3.51028654555979
C            0.92430402825108      -19.83004474243611        3.15521072430262
C            1.30287513376687      -18.52064837469285        2.94941003850086
C            2.25485086375393      -15.66727298586760        3.32981892620368
C            2.63519748208147      -14.36109896957486        3.12585269210981
C            4.81825416797160      -12.25181600247998        1.03238485109262
C            5.18303766399965      -10.94284484218605        0.80727101144755
C            4.97459015870326      -10.00350841033284        1.80906375038985
C            4.92094682201688       -3.46206355051014        1.58909600594385
C            4.99263708231358       -2.10813198386403        1.83017369431645
H            0.16689139481025        0.78776320941699       -0.22179429419221
H            0.26449931997374       -0.18512528958500        1.24337007370139
H            0.41957449141151       -0.95229350897465       -0.32909886550112
H            2.41587441313176        1.06667799552301        0.83738849572351
H            2.57625718416235        0.29915041029976       -0.72123177129932
H            2.64116993796898       -1.95833488160794        0.43571511847747
H            2.54123649050529       -1.15196069467609        1.97469538124730
H            4.71742277877529       -0.04882135843559       -0.96143219438420
H            4.70589669498014       -1.79354535456683       -0.96834694884303
H            6.96998704296752       -1.80525617714217        0.13316240430482
H            6.97479693313030       -0.06430125172008        0.14505303146441
H            6.85873869670934       -1.79579559708365       -2.39332293560035
H            8.28019836668629       -0.92795833189908       -1.81923542791849
H            6.86675579065019       -0.03922026164848       -2.38128457141476
H            4.40181742847255        1.96185066125763        0.61924144727652
H            3.27334227402015        3.87422053299684        1.32830312873752
H            3.08193839708148        6.27177187645952        0.85688137856959
H            2.83246419573310        8.33542411428530        1.99659232963676
H            2.62436603561783       10.74099574777814        1.54815039858335
H            4.55315953399077       12.00569147222395        0.69772119804136
H            6.68780441672137       10.85789791830188        0.28494388319362
H            6.89114844042718        8.44814259653801        0.71364587105046
H            6.94987335815304        6.90679813376163        2.51581526810592
H            7.15964007577668        4.50330295942512        2.94889982215077
H            6.34144866077908        2.82176085839461        4.32511060670017
H            6.56109543037976        0.40855072032739        4.78633817194546
H            6.58576306431131       -2.12902904010696        4.82270774208129
H            6.44716231252576       -4.55925881951200        4.39903124320516
H            6.12859705154266       -5.70205531241914        0.28920212269737
H            5.98155136992390       -8.13104262105543       -0.13787553528181
H            4.55751136245036       -6.27136612601772        4.22072997880389
H            2.73889228177146       -8.03922800226815        4.98001686177601
H            2.43421234020573       -9.75642175398388        4.91382794038693
H            1.94534655356080       -9.57893747313712        2.45402984424548
H            2.23755030584112       -7.86413196948340        2.51873994145486
H            0.03290892630938       -9.32198876081839        4.08866235739912
H           -0.22408074002640       -8.33245629150224        2.65406687529217
H            0.32858601638480       -7.59139715047235        4.15354848379354
H            5.11935105188387       -8.30012851159247        5.73305648750976
H            6.22639058782077       -9.31527092700294        4.85392824649675
H            5.02291849795890      -11.35582233720545        5.62591330364324
H            3.83383768151082      -10.37595895885815        6.44450398116793
H            6.82956690002465      -10.42724592452264        7.12004789184058
H            5.55820388989594      -11.19605709855462        8.06657907255701
H            5.63388518081704       -9.44053420226842        7.94599974475038
H            3.55251334388020      -11.97406884298184        4.16003704212233
H            5.52981886673222      -14.89354117694183        1.48868635805564
H            4.84193420776504      -17.22066889765532        1.83569011435227
H            4.59925435283930      -18.81229823325515        3.58114100674218
H            3.92311207591913      -21.14596199213058        3.93794763375667
H            1.56814265018202      -21.79955932833430        3.67096743074743
H           -0.10817212774821      -20.11669029349220        3.03678729390644
H            0.57020282440928      -17.78669837201503        2.66057893803543
H            1.34277633976020      -15.88586105003946        3.85820045457437
H            2.00928444687254      -13.55831320926218        3.47596893968592
H            4.96225414609271      -12.98586160449247        0.25846728099588
H            5.61352630371688      -10.63881417501952       -0.13074523692678
H            4.44853756690188       -3.82646283618791        0.69520735224342
