91
 energy: -16.300313808483 gnorm: 0.000348469379 xtb: 6.5.0 (97a52f5)
C            0.84870263345251        0.06161982474693       -0.86285816657307
C            2.35274990723764       -0.13346080333500       -0.97889688091157
C            3.12140298453660        1.18292220399504       -0.86994103528250
C            4.66964913989983        1.07656634473493       -0.91762668892121
C            5.22155906681676        0.24561858022305        0.26812865892428
C            6.74848619912599        0.19859336133738        0.32852839122783
C            7.26566328629437       -0.62403375973906        1.49767055561938
C            5.16405494565458        0.52101845890874       -2.25906233043348
C            5.04158116880965       -0.73848633343276       -2.80587694602155
C            5.61413901722767       -1.01852617069040       -4.04919558434240
C            5.47592784630120       -2.36568914116345       -4.65086260786515
C            4.25062748273947       -3.02536042214009       -4.65624990442884
C            4.12445085609144       -4.27678682132173       -5.21940756193159
C            5.21088760395073       -4.92739316549978       -5.79193061475371
C            5.02125079181031       -6.32542702673641       -6.41150382354416
C            4.44280557777538       -7.27171290009556       -5.34258357074604
C            4.03828449313257       -6.21243235030828       -7.59088856182948
C            6.37476669908180       -6.90098359929875       -6.92373849397598
C            6.30766744108293       -8.29460383407082       -7.53220624787808
C            6.43328290247150       -4.26437677812147       -5.78691515257511
C            6.56502855814500       -3.01013242200860       -5.23002751501275
C            6.31996166022460       -0.00938827685175       -4.71458366929040
C            6.46523602376218        1.24578642311316       -4.16583473190287
C            5.88730318104848        1.51183539510835       -2.93110881600467
C            5.93929260800784        2.72276269321761       -2.10544115084519
C            6.55090508513704        3.94782952970498       -2.33816360968951
C            6.46901942556613        4.92862553245525       -1.37353926984607
C            5.78921155038853        4.71414072596911       -0.16813496985983
C            5.71698890042838        5.77967549697489        0.85864222308718
C            5.47674492833079        7.10413323881094        0.50532198968096
C            5.40806179980151        8.09054704802841        1.46522371196800
C            5.57862745233287        7.80319362886424        2.81410001779600
C            5.48836080251102        8.93897777454518        3.85119802156435
C            6.54105304582082       10.01009032287568        3.50996502438217
C            4.07923363000914        9.55607510040842        3.78540481485061
C            5.74892278581587        8.40696825038638        5.29147823661778
C            5.70158585352205        9.45314273609696        6.39606063150930
C            5.81687246671534        6.47873341815132        3.16430698403362
C            5.88423273065989        5.48695408862574        2.20911633650108
C            5.18027746016626        3.47628219300288        0.05342178343879
C            5.25702651795935        2.49295079468166       -0.90845064091884
H            0.30364661493648       -0.88151471699039       -0.94767732070212
H            0.47581268617630        0.72757051316264       -1.64367130931160
H            0.58141538018268        0.51047967728914        0.09595897851097
H            2.58960005977902       -0.61844276148633       -1.93367456632951
H            2.69839678001301       -0.83053123192689       -0.20522597700818
H            2.84035665760656        1.68861798968793        0.05971651986704
H            2.80048749073243        1.85565352883996       -1.67244494568875
H            4.83104868956239       -0.77437731978881        0.20551722145452
H            4.82866801444648        0.65775961719411        1.20324382232587
H            7.14173537064838        1.22237759859994        0.38383126995920
H            7.13665892736523       -0.20222955968155       -0.61727585277304
H            6.91720704726198       -0.21883694695514        2.44979640536680
H            8.35750705975874       -0.64887816863930        1.53083571267224
H            6.91521372908278       -1.65647558629490        1.43951963788107
H            4.53714131503597       -1.51725737343175       -2.26406388710646
H            3.39348292294035       -2.53826148081329       -4.22330213182381
H            3.16148785264646       -4.75750615404788       -5.21966840312539
H            3.50241873729371       -6.89307009859728       -4.94449035696657
H            5.13679262979497       -7.38310750377627       -4.50973117350652
H            4.24243360089815       -8.26027904905328       -5.75328799126970
H            3.08875995798838       -5.78432579232685       -7.27166585160128
H            3.82510214808110       -7.18768722623285       -8.02636063633125
H            4.44599215450064       -5.57242030295243       -8.37315181637509
H            7.08358491951109       -6.90411746479258       -6.08729894672246
H            6.78547169889156       -6.20423713830236       -7.66373582725389
H            5.94965051918611       -9.03382297883801       -6.81406215087447
H            7.28886860959707       -8.63363016087817       -7.87395623633067
H            5.64118212590315       -8.32819267902955       -8.39537953029075
H            7.29976541420338       -4.72889636185275       -6.22267870386290
H            7.52266957838209       -2.51790933478682       -5.22923368220846
H            6.75334299557793       -0.22716906487735       -5.67566978233696
H            7.02153719957416        2.01413660317539       -4.67378551305543
H            7.08114137448059        4.11569055486796       -3.25928520666492
H            6.94747352712940        5.87905208479432       -1.53656784902831
H            5.33107250533904        7.35044063597410       -0.53260431978034
H            5.21332654962076        9.10492351234169        1.16255249508193
H            6.40438357657073       10.39165627827867        2.49901484478162
H            7.54742034413214        9.59724847709376        3.57725380220773
H            6.47639218569474       10.86098984920664        4.18666174611920
H            3.85235923405351        9.91392512991323        2.78185762384234
H            3.98404681964476       10.40479645309359        4.46123884632683
H            3.32257688314540        8.81947645635321        4.05510842888690
H            6.72759226587683        7.91292674020896        5.30233760133297
H            5.01346310310505        7.62260539871852        5.50517394548073
H            6.45591768840226       10.22827264964626        6.25270844080788
H            5.88304001725617        9.01115557964888        7.37897618934802
H            4.73032116791372        9.94768551070655        6.44444300960782
H            5.95317854354143        6.21080038009288        4.19680844720692
H            6.07948668032166        4.46926623399329        2.50174606954032
H            4.64444213635806        3.29325964334005        0.96685007388208
