149
 energy: -26.537688901893 gnorm: 0.000580219854 xtb: 6.5.0 (97a52f5)
C            0.38002252642289       -0.49851654076349        0.31002209684569
C            1.88106103642477       -0.29405770454646        0.17321083425920
C            2.68374396182060       -1.49018733753485        0.68542479130836
C            4.22416113615006       -1.40624521455506        0.50546866248094
C            4.62063944396161       -1.37673001053001       -0.99214566705955
C            6.13061912688978       -1.39452185520809       -1.23073288866518
C            6.49185611330315       -1.39297450901156       -2.70747125695573
C            4.82304869982128       -0.21425307489515        1.26055023495357
C            4.68808937385304        1.13875387604196        1.04064978585482
C            5.36071980039943        2.04926908844588        1.85938878621574
C            5.17319195333683        3.50402006243288        1.65381459838093
C            6.27049785919466        4.36737777583215        1.54632990627335
C            6.10131835737965        5.71959834973151        1.33876054724885
C            4.81278427786713        6.22998075121716        1.24193095771876
C            3.70896378068500        5.38253379479293        1.36066158913645
C            3.88284740113943        4.03117216158916        1.55825958186845
C            2.41779968536905        6.20051393867331        1.24479916685456
C            1.57193352250634        6.07334878415522        2.53733202420635
C            2.33225814702858        6.45001756858408        3.80929939063750
C            1.47998443651523        6.32766154000215        5.06211101140688
C            1.63050747428336        5.71492514965458       -0.00240101479026
C            0.36994467368259        6.50623163334348       -0.35157823673411
C           -0.38867311803746        5.90390693244547       -1.52433330038291
C            2.94613529611682        7.62980693827885        1.07427505677998
C            2.26601469190869        8.82900180324240        1.00281957569437
C            2.96404708211267       10.02772212721357        0.87811742015034
C            2.24798292293858       11.38803995102751        0.78477305186532
C            2.69897609125972       12.26775180749569        1.96496780702333
C            2.63445613982316       12.06143825554162       -0.54481219009951
C            0.70132608124028       11.21141720480299        0.83900744347365
C           -0.11071444791578       12.49507732042114        0.74386947478148
C            4.35788169352494        9.98225175583900        0.84480469414235
C            5.05240551739557        8.79342958759288        0.94178031130770
C            4.34176196563747        7.60918709928344        1.06052943634840
C            6.18580221686411        1.56507409404348        2.88161798645314
C            6.33829502041670        0.21292062794190        3.09802816213399
C            5.65196752113778       -0.68186990508873        2.28569194854942
C            5.66655292632293       -2.14824378526763        2.26753798794295
C            6.33036955995647       -3.05438089687931        3.08544008312914
C            6.18586238918816       -4.40295952511800        2.84221232094040
C            5.39791569553526       -4.87353196304246        1.78416099962332
C            5.26591676233954       -6.32721401311197        1.52837896668033
C            5.52228867560022       -6.84853523072551        0.25410394562511
C            5.40268143230412       -8.19578449328563       -0.00783885878239
C            5.01229450482691       -9.04727137666087        1.01738177885763
C            4.74262773514692       -8.54176507537906        2.29142660066627
C            4.87422757169158       -7.19508974350387        2.55124916035423
C            4.30413454726424       -9.68703662634214        3.21280657882040
C            2.87312709677413       -9.43775382480061        3.75330004918219
C            1.83226499379264       -9.21007491393281        2.65670424651299
C            0.43647055674616       -8.97406937557978        3.21073077225248
C            5.33412624589412       -9.82195733877608        4.36684228214867
C            5.13089668780131      -11.00561889856268        5.31292251391268
C            6.12641104605296      -11.00992032365339        6.46296132053345
C            4.33112973459410      -10.89902337924679        2.27282479755109
C            3.95274659242715      -12.20879708523071        2.49179469261242
C            4.03732286981241      -13.14717426132338        1.46575483436086
C            3.63867462823673      -14.62144259742449        1.66489918578510
C            2.50603164885769      -14.96683737981968        0.68075259021908
C            4.86461099865089      -15.50847733393690        1.38022439532327
C            3.14802612140736      -14.87773674367994        3.12068374614107
C            2.73112036155667      -16.30832799925734        3.43059289196079
C            4.49627896852998      -12.72506542787744        0.21798163210560
C            4.85215106458518      -11.41385476767509       -0.02359316931155
C            4.76585143820618      -10.49438609931619        1.00999736152815
C            4.73611638680024       -3.95200953205978        0.96852766121981
C            4.86682404476152       -2.60343397803531        1.21553614202516
H           -0.18665840611079        0.36448754754958       -0.04797077359528
H            0.09792671922869       -0.66741951704941        1.35124777479518
H            0.04663241665281       -1.36906404053029       -0.25854305000435
H            2.18066489801906        0.60863613099872        0.71975824455822
H            2.13599919780400       -0.09676678903527       -0.87559722446576
H            2.32940344745418       -2.40166034559849        0.19269328049302
H            2.47114831752644       -1.63728055724358        1.74983182212126
H            4.19078896068650       -0.48703307793310       -1.46175735805679
H            4.15876673557530       -2.23140598527252       -1.49701506029580
H            6.56637550995150       -2.27316303552212       -0.73685272415750
H            6.58801142323161       -0.53233629243143       -0.72728290823669
H            6.07647182679371       -2.26550798735073       -3.21588019450219
H            7.57288137291329       -1.40413905440138       -2.86614383252447
H            6.09483633309924       -0.50869660202646       -3.21008276438339
H            4.08875348923218        1.49940161411778        0.22486153830232
H            7.26229470162942        3.95467085611935        1.61719241713244
H            6.94684672620984        6.37988053111989        1.25563318119796
H            3.02875973350839        3.38532289411492        1.65182606371444
H            1.20160331740605        5.04635174290938        2.61974548755266
H            0.68225193062454        6.70376300093220        2.44925856095226
H            2.71664193506657        7.47413096066188        3.71216212201512
H            3.22738658585833        5.82011039282990        3.89794174591523
H            0.60229359165283        6.97487370418190        5.00690986686317
H            2.03341153885938        6.60063742930726        5.96388842115421
H            1.11863339865364        5.30592548449931        5.19512913464765
H            1.36595439375147        4.66287685070295        0.14763387807197
H            2.31047209761809        5.72097235235915       -0.86104963942274
H            0.64091568421902        7.54410537493128       -0.58131289569435
H           -0.28713985052214        6.56451234752997        0.52516986817915
H            0.23448005730932        5.86592493523541       -2.42012261431975
H           -1.28545140887117        6.47714000238537       -1.77178447203214
H           -0.70300347779359        4.88086945319941       -1.30762726165128
H            1.19529312302016        8.81960220750417        1.07352801312435
H            3.78070381152189       12.39562435410187        1.97123334538908
H            2.41144710380094       11.81608452129238        2.91427939714351
H            2.25596072141002       13.26130344078187        1.91269857667443
H            3.71405845939187       12.17947827865746       -0.62867788244562
H            2.19322650142532       13.05340162254189       -0.63140792491061
H            2.29787784855720       11.46369901273655       -1.39174827902616
H            0.44855932249494       10.69237729817423        1.77106865932031
H            0.40540283415746       10.53522953427695        0.02827900111158
H            0.12125833017939       13.18272185539775        1.55854149113180
H           -1.18469692733910       12.29766833086017        0.79009018175551
H            0.07477674390292       13.02347662425317       -0.19249491803844
H            4.90978984642144       10.90143234536924        0.75148206263536
H            6.12830154935631        8.77460832663080        0.93353269570236
H            6.69962863343308        2.27185155951506        3.51048703005185
H            6.97898132958622       -0.15632520404507        3.87969550655565
H            6.94517912997471       -2.69713120256844        3.89301166929903
H            6.69476702941188       -5.11879988237866        3.46488479259676
H            5.82540443581001       -6.17408088178554       -0.52850672287311
H            5.59931011534673       -8.59182959778050       -0.98879450081545
H            4.65964910737398       -6.81048563906249        3.53168136656000
H            2.89336147020265       -8.57511458039632        4.42715220697468
H            2.56726231970381      -10.28852758201362        4.36924454012185
H            1.82814581930630      -10.07185724198221        1.97603765013111
H            2.14037722026230       -8.36006814360275        2.03350180260938
H            0.09874646739439       -9.82550842409046        3.80509236922439
H           -0.29857026293174       -8.81430365278334        2.41817381971052
H            0.41339915869777       -8.09768250586150        3.86163247608742
H            5.32552918862510       -8.89183462613689        4.94475222704969
H            6.33583469024602       -9.87867546493452        3.92750705999255
H            5.21471031597428      -11.94309993397148        4.74949903626720
H            4.10724003758045      -10.99436875014058        5.70773250575563
H            7.15363446494086      -11.05878395647282        6.09602509337536
H            5.97612255172287      -11.85963999230421        7.13339498985485
H            6.04173555595425      -10.10090301472665        7.06197656627906
H            3.56798686295601      -12.48064315444867        3.45597118940809
H            2.80668317121648      -14.77938689752357       -0.34927274101036
H            1.62110132980499      -14.36416342277897        0.88453797187523
H            2.22577095244755      -16.01700574025861        0.74945814156258
H            5.25331109063536      -15.33505746459781        0.37752886615338
H            4.61567268215257      -16.56631961459213        1.45208836778709
H            5.66544911420604      -15.29818177116170        2.08894735719733
H            2.30673073898512      -14.20422407285450        3.32220643501035
H            3.94628246869809      -14.57618204561286        3.80907652484487
H            1.90542234158410      -16.63602485414287        2.79716241287534
H            2.39998154502622      -16.41706288896183        4.46643813064523
H            3.55326751923572      -17.01059249108592        3.28470108487999
H            4.56575693497164      -13.43947214844103       -0.58390376678142
H            5.18578802264907      -11.09735458234385       -0.99647444630459
H            4.11862323312678       -4.29524804564264        0.15846864361711
