100
 energy: -19.140948015876 gnorm: 0.000330882764 xtb: 6.5.0 (97a52f5)
C            0.65593778784944       -0.37215468779819        0.04739934860425
C            2.16766279312334       -0.20297096833224        0.03996808712048
C            2.89036690913164       -1.39588615375344        0.66409808881290
C            4.44195478431601       -1.33093246604555        0.66249765375201
C            5.01040423077626       -1.33449782478427       -0.77827616412684
C            6.53730570991884       -1.36943426008997       -0.83838793083273
C            7.06839372262725       -1.37042634979647       -2.26286414134802
C            4.95886031041260       -0.13009781003165        1.46370984092677
C            4.90102105611783        1.21927633495838        1.18897568941038
C            5.46595944900897        2.13827965875006        2.07707346355054
C            5.39944240397744        3.59065757371374        1.79449545454795
C            4.25372411819998        4.15845977710799        1.23769386217974
C            4.19132410882541        5.50991054079130        0.97359110349609
C            5.27056306101519        6.32232972541016        1.25927297140839
C            6.41393587218457        5.77847614634646        1.81002189996694
C            6.47947728837101        4.42724524679113        2.07490881877981
C            6.09638870327994        1.66239573654218        3.23310217925710
C            6.18046244364411        0.31407496317464        3.50299569519396
C            5.61274348134511       -0.58743051980401        2.61203974429028
C            5.61501269221025       -2.05369579893513        2.61997006292732
C            6.14514921786050       -2.94948836841086        3.53982266721270
C            6.02890604462403       -4.30057718025816        3.29743451119528
C            5.40065789099634       -4.78390872708148        2.14270737221258
C            5.28807887792765       -6.24068345640475        1.90064743998897
C            5.67930340929078       -6.79216712983120        0.67409644872445
C            5.58338404570937       -8.14497748375714        0.43193114620156
C            5.08020539903845       -8.97231572394528        1.42809705323053
C            4.67408456313386       -8.43507754627216        2.65223072273691
C            4.78176254756316       -7.08351344293893        2.89335311393314
C            4.13360920570546       -9.55450265968755        3.54944925399861
C            2.65150520381787       -9.29115504246044        3.91828010297049
C            1.74536520433309       -9.07795187214378        2.70524067624450
C            0.29544460172616       -8.83124527507955        3.08924441253561
C            5.02883723673022       -9.65473653961815        4.81376912572057
C            4.70248089396561      -10.79282945823783        5.78047280581495
C            5.57356849991632      -10.76391180757455        7.02715579495489
C            4.26285501718250      -10.79060539129506        2.65112731418621
C            3.85941496423163      -12.09209145546637        2.85833017389848
C            4.05680724229696      -13.05246939031590        1.86292801616523
C            3.63205467903000      -14.45476465914987        2.08055419689132
C            4.42401227722484      -15.51877276017971        1.64996116809704
C            4.02865419632875      -16.82284949018544        1.85803206565272
C            2.83571423081760      -17.09146482531550        2.49928963924371
C            2.03788481326319      -16.05112555263188        2.93241754166919
C            2.43061524531308      -14.74604283684307        2.72610356480086
C            4.65391875386828      -12.66531274941916        0.65733310017826
C            5.03589382389054      -11.36121253173261        0.43123226225819
C            4.83518432553736      -10.41787211923735        1.43065810165247
C            4.87223275559740       -3.87231625703979        1.22501505417815
C            4.97599112109710       -2.52075872005842        1.46835246196789
H            0.14373186206097        0.48661663672904       -0.39274141738858
H            0.27779142079033       -0.49406611437193        1.06436063624271
H            0.35511564700552       -1.25807441983721       -0.51524581331780
H            2.43909954514536        0.71230141237816        0.58013528579867
H            2.52168289335513       -0.04977496816305       -0.98715164974128
H            2.58266499029122       -2.31457999827303        0.15394850567206
H            2.55602872470227       -1.51634336413388        1.70014796057948
H            4.64742315698172       -0.45020224381250       -1.31025643270567
H            4.60117221435115       -2.19421318002140       -1.31859538176468
H            6.90219579780363       -2.25296840474027       -0.29816624321278
H            6.94192291964753       -0.51248825993591       -0.28373120050798
H            6.70371298160440       -2.23624687114121       -2.81902728347765
H            8.16012047068932       -1.39540547640416       -2.29428330319329
H            6.74416859684207       -0.48013574750569       -2.80525571234270
H            4.45195324137395        1.56390053423148        0.27576192254058
H            3.40682517452202        3.52853208596583        1.02574170270954
H            3.29785180170862        5.93368592163114        0.54421070915183
H            5.22054723756823        7.37926279113256        1.05267825178838
H            7.25769859786548        6.41186714318516        2.03172887470763
H            7.37680406821535        4.00316424976469        2.49181728194367
H            6.51967173381372        2.37145006458694        3.92347529468949
H            6.68155355811193       -0.04695435459744        4.38405069570919
H            6.63675713926697       -2.58256376152017        4.42374570390753
H            6.43638360750492       -5.00857299654232        3.99862815765582
H            6.06999731327480       -6.13722747344676       -0.08574564122201
H            5.88456158138563       -8.56433046308456       -0.51202349864129
H            4.46156316772323       -6.67590915467141        3.83485012895901
H            2.59886216874696       -8.41735748930753        4.57564357639222
H            2.27259237487052      -10.13070722316804        4.50834043753893
H            1.81768043978619       -9.94935905476972        2.04102988578138
H            2.12660617567993       -8.23766343488325        2.11006071563788
H           -0.11251333486417       -9.67355418559795        3.65135537822788
H           -0.34102147426844       -8.68083639404867        2.21408374789457
H            0.19991823733329       -7.94605003884884        3.72105345312031
H            4.97430415757458       -8.70088820700364        5.34879473552900
H            6.07106097393669       -9.74355549348298        4.48924499410022
H            4.82292388301033      -11.75503784672023        5.26802265799653
H            3.64407521807262      -10.74591525425961        6.06564900834724
H            6.63177814048181      -10.84498502752346        6.77120682324935
H            5.33748739671928      -11.58109960859650        7.71279091165777
H            5.44647093719465       -9.82848966657788        7.57562817310367
H            3.38000996161625      -12.36750668162283        3.77926564730146
H            5.36060683316974      -15.31088928845936        1.16158300583370
H            4.65313072956311      -17.63460235369807        1.52138317461466
H            2.52782585510015      -18.11177885147698        2.66186176257101
H            1.10551079192068      -16.25990954567716        3.43175512851497
H            1.80191923454892      -13.93589806464878        3.05386528708747
H            4.79256399177770      -13.40311880225804       -0.11406207997763
H            5.47405339852768      -11.06420767726217       -0.50549850310737
H            4.37302725157860       -4.22502180916290        0.34100150761832
