55
 energy: -10.631110108770 gnorm: 0.000719797428 xtb: 6.5.0 (97a52f5)
C            0.83505304832820       -0.46180355961627       -0.04656862979263
C            2.34511770144025       -0.50050391469002       -0.22557927529994
C            3.07516466262123       -0.89098919380807        1.05899318651092
C            4.62592357717639       -0.89507153856699        0.98847884476553
C            5.18812389829772        0.52089419701688        0.70801842514558
C            6.71513244474767        0.59044718956568        0.72075649704361
C            7.24200094412316        1.98737723081103        0.43494975096340
C            5.17220193878544       -1.44858487486374        2.30922288901708
C            5.07142919771888       -0.94988085449924        3.58887815930159
C            5.64943654738736       -1.64321993548254        4.65061412691644
C            5.53366205128274       -1.09105678293245        6.00242633441887
C            6.12285745365633       -1.59264502697633        7.15709084563279
C            5.74957398691565       -0.75700713447836        8.19917120610252
C            4.94810507981603        0.22209096854721        7.65781457345915
O            4.80493386750726        0.03705371133020        6.31770168258413
C            6.32198146496132       -2.84355902516546        4.39662083030344
C            6.42657788226300       -3.34813804372749        3.11930302953158
C            5.84767711166776       -2.64760151658403        2.06876155802604
C            5.83425335251746       -2.92925064608332        0.63123324453257
C            6.42067919124169       -3.96587282011954       -0.08362751085855
C            6.32145973744328       -3.96613901394555       -1.45689746542064
C            5.66040821069438       -2.94303402680502       -2.13927580508611
C            5.60752211969981       -2.98037726811537       -3.60238301930178
C            5.03545060351738       -2.02478243353514       -4.43413669928806
C            5.21692522450554       -2.46016570244521       -5.73827390382320
C            5.88729351277683       -3.65999541460100       -5.66806991663942
O            6.13535614684617       -3.99535503069339       -4.37299385719402
C            5.07556111132236       -1.90518866078143       -1.41168310406525
C            5.14825260453502       -1.90892537822770       -0.03582346191151
H            0.31931425584952       -0.18656504110835       -0.96909881662601
H            0.54749458848435        0.26112034679932        0.71884531238193
H            0.45009552643039       -1.43348141468734        0.26779856776465
H            2.70388216916555        0.47547587156963       -0.57459351773542
H            2.60358885712677       -1.20793090178791       -1.02265442224135
H            2.74533659516716       -1.88719115873732        1.37154621682886
H            2.76908123325816       -0.21933226491342        1.86736697005940
H            4.78173122017608        1.21721723758455        1.44810925338199
H            4.81964431568930        0.86889804284115       -0.26107499761627
H            7.11687009202670       -0.12239228490650       -0.01112778007077
H            7.08688891114689        0.23761927353825        1.69146150766179
H            6.91200600274402        2.34029141166254       -0.54367909278196
H            8.33340897120783        2.02478714167628        0.44733215248732
H            6.88002124340474        2.70390716732808        1.17434406757152
H            4.55151408139763       -0.02791623684236        3.77408361152993
H            6.75587329983500       -2.46038729555739        7.23087315664084
H            6.03317935972619       -0.85461688969107        9.23449105358870
H            4.48524373272775        1.03027427423167        8.21144024855281
H            6.76386319951125       -3.38103809617066        5.21677300008646
H            6.94914089536162       -4.26830788794328        2.92599514725869
H            6.94959917584594       -4.74483854219316        0.43651581841709
H            6.76983284965317       -4.75804152078879       -2.03173861843038
H            4.54584472964326       -1.11631249816842       -4.12732509142296
H            4.89695667796617       -1.95493958112797       -6.63507204322539
H            6.17879076196590       -4.26541183590720       -6.51799957040087
H            4.59341258069637       -1.09251281722937       -1.92108466923868
