43
 energy: -8.547190095646 gnorm: 0.000845676937 xtb: 6.5.0 (97a52f5)
C            0.64188811012140       -0.25975522993389       -0.36524566281631
C            2.14903583441290       -0.12197755652611       -0.51768843346753
C            2.90196462906933       -1.35647911039504       -0.02169308694096
C            4.44504034425576       -1.33155003481085       -0.19350751122972
C            4.85500162215131       -1.29131135042912       -1.68696478370641
C            6.36631173481742       -1.35676884982923       -1.91079071102850
C            6.74713040788456       -1.30566589146624       -3.38169565695965
C            5.03146898862703       -2.56642255021519        0.49943258896379
C            4.85656954037324       -3.90543016462404        0.22385105294644
C            5.49360814660361       -4.85987976813942        1.01348415887621
C            5.32512562181040       -6.22693876947146        0.74285052029520
N            5.18716173051111       -7.35797403558460        0.51904678841709
C            6.30030087389663       -4.44400282975519        2.07390785606246
C            6.48007188252101       -3.10723912464070        2.35474635799504
C            5.83956684232200       -2.16349231115973        1.56398949473155
C            5.87526337832339       -0.69877564157892        1.61578316987813
C            6.58354258173652        0.14727434221124        2.45781519153329
C            6.50474948783902        1.50743483515154        2.25569849949607
C            5.74101929066709        2.04085000581031        1.21692841313890
C            5.69090169169908        3.42875422287408        1.01220227703489
N            5.65136119508496        4.57664427115889        0.84253735120491
C            5.03546798179391        1.18363663589533        0.37586332703653
C            5.08767701462686       -0.17823329521572        0.58523325794674
H            0.11087846360183        0.63069418697296       -0.70737045900966
H            0.36569052075980       -0.42651212839969        0.67666622764088
H            0.26410494737384       -1.10750061983382       -0.93807794489190
H            2.49458900647227        0.76129695302825        0.03198795398192
H            2.40053064347427        0.06986314008561       -1.56751210588281
H            2.51318029062639       -2.24549422125996       -0.52840510007578
H            2.68072627567948       -1.50909327716840        1.03990466010552
H            4.46184565586710       -0.37896753334173       -2.14373158560870
H            4.36910122355026       -2.11997401679410       -2.21095856527591
H            6.76230159763078       -2.27089042558097       -1.45028397832754
H            6.84898909939518       -0.53433643586775       -1.36736014365600
H            6.30432144107105       -2.13705698259644       -3.93224484212726
H            7.82821594621928       -1.35378858331886       -3.52669386607098
H            6.39356203902884       -0.38498561770675       -3.84812068634469
H            4.23313656693184       -4.21407214330158       -0.59544145736290
H            6.78850119726875       -5.19159758292314        2.67539981626110
H            7.10680256252598       -2.78861662560509        3.16869184948225
H            7.18958586287945       -0.26468735623613        3.24520060060331
H            7.04780905916187        2.18084747253268        2.89656701344989
H            4.47525866932637        1.58831399798701       -0.44698184629477
