104
 energy: -22.187185543610 gnorm: 0.000766119642 xtb: 6.5.0 (97a52f5)
C            1.14555167843230        0.05969382869357        0.45733047793431
C            0.31349825246765        1.08148041572152        0.18204884683348
C           -1.13473551895396        1.06579440848787        0.30688332721178
C           -1.85862298685403        2.04272110039478       -0.37525141060014
C           -3.24448668155206        2.10414047850999       -0.36037867443255
C           -3.93444502442345        3.18640852252806       -1.10642857806485
C           -3.71781868976478        3.35871086995315       -2.47364604904443
C           -4.35544446993497        4.36445625590711       -3.16651815433916
C           -5.21829856808226        5.21958883708182       -2.50956472662494
C           -5.43964350628823        5.06882429430608       -1.15478216206001
C           -4.80306852448459        4.06522233384657       -0.45834999379742
C           -3.96774201271387        1.12709328887756        0.36959020802613
C           -5.41594955404617        1.12112424338625        0.34670399730671
C           -6.21081244176643        0.36296922124256        1.12501385516880
C           -7.65856890832468        0.34491720656938        1.07324451122244
C           -8.37295164844162       -0.40577580848820        2.01391376250059
C           -9.74407187819821       -0.45061982813174        1.99108882156193
C          -10.46786293676362        0.24712304869790        1.02364189466731
N          -11.89700644825511        0.19643348533724        0.99824556206045
C          -12.63837799629848        0.09626813139854        2.22496309245410
C          -13.79106314638454       -0.68228568219150        2.29992979023344
C          -14.50257189530788       -0.77402821774329        3.47514578139308
C          -14.07746685283502       -0.08994618848610        4.59762441621596
C          -12.93704385198187        0.68770888004199        4.53950518247177
C          -12.22406855303288        0.78083057673120        3.36540405507942
C          -12.60014877077062        0.24143170645838       -0.25394474876002
C          -13.80751115943677        0.92653060886626       -0.36961624804160
C          -14.48643967842577        0.95751219093578       -1.56711554995856
C          -13.97302858448044        0.30584464420867       -2.67190308769615
C          -12.77662414435312       -0.37801224436085       -2.57391218318682
C          -12.09638047731961       -0.41074152856750       -1.37731405926531
C           -9.75974156980995        0.99422979709692        0.08160094822302
C           -8.38834119307509        1.04500548284792        0.10517761228417
C           -3.24704964040717        0.16490395757826        1.07292336738000
C           -1.85978417988762        0.11555324348852        1.07644658481798
C           -1.19878916990658       -0.91609991851058        1.91616559271850
C           -1.28947559938506       -2.26836541383145        1.58520998230770
C           -0.65053411269042       -3.22188588555566        2.34670922725822
C            0.08210308147432       -2.84662398907158        3.45583838189408
C            0.17070171824427       -1.51359725770582        3.80653786926111
C           -0.46509849370591       -0.55608229948012        3.04736973407152
C            2.58910764332133        0.08100453946888        0.35374791200321
C            3.32028340328854       -1.02864598567722        0.79163364531624
C            4.69053853483389       -1.04260817817857        0.73147123096912
C            5.39673590037646        0.05047603577003        0.22859813443077
N            6.82490953700167        0.03945445147419        0.17790009758503
C            7.53537469170355       -1.19954075368203        0.01495789730128
C            8.70541935831663       -1.44652491116192        0.72952962915102
C            9.38572832706429       -2.63363574316284        0.57593263689382
C            8.91172382436160       -3.59568653823625       -0.29499823151101
C            7.75483559521209       -3.36441819368677       -1.01416808698471
C            7.07281428832040       -2.17804958425230       -0.86215474172304
C            7.56859743463622        1.26115412013112        0.31707490830649
C            8.72187371872809        1.47878465537306       -0.43321261384857
C            9.44149684780643        2.64437263168883       -0.29444720774167
C            9.02428944281837        3.61409047263009        0.59682770089257
C            7.88424856828021        3.41226740135548        1.35074200360730
C            7.16331606652553        2.24721700852786        1.21399661075240
C            4.67049961122936        1.15615051580982       -0.21655607891927
C            3.29909988446078        1.17358438070274       -0.15639618349151
H            0.71965039288063       -0.86726878058025        0.79017229720138
H            0.74094899080018        1.99454166181208       -0.19109224643099
H           -1.32193059190059        2.78054701728599       -0.94457445007059
H           -3.04847088121553        2.68746184341612       -2.98391728032037
H           -4.18081588810124        4.48365242679444       -4.22349685693146
H           -5.71673939147833        6.00558157544002       -3.05331568008043
H           -6.11033950200976        5.73822108681705       -0.64097735803042
H           -4.96625983477965        3.95118385554609        0.59976302276648
H           -5.88001058580231        1.78694657784985       -0.35603351697030
H           -5.75590313174684       -0.27506409598153        1.86010789593081
H           -7.83029453738553       -0.95374808844007        2.76526911449739
H          -10.28001379537812       -1.03931466281278        2.71495003698979
H          -14.11404934892616       -1.21833027969441        1.42463014371687
H          -15.39213118297206       -1.38113126805417        3.51955468155121
H          -14.63516931066530       -0.16207915588231        5.51710313054530
H          -12.60527605713126        1.22314788149998        5.41417767466356
H          -11.34042302639416        1.39255663359953        3.31201570695787
H          -14.19959779522776        1.43762699857077        0.49235075458958
H          -15.41995436129452        1.49111064759974       -1.64258524634605
H          -14.50559127379920        0.32977801115192       -3.60866398800024
H          -12.37584983277362       -0.88800722491875       -3.43484674487200
H          -11.16976061202997       -0.95119826100373       -1.29262699169161
H          -10.30996235632912        1.54350268085430       -0.66235226538375
H           -7.87102695780624        1.62605827810447       -0.63693115423883
H           -3.77293465690731       -0.58083546666498        1.63913288185746
H           -1.85624716438985       -2.55514469471652        0.71589449868986
H           -0.72214240826475       -4.26282983505062        2.07611671739589
H            0.58314433315484       -3.59433792202934        4.04889978344070
H            0.74196536602780       -1.22146849746768        4.67261761382596
H           -0.39296152863322        0.48520810042041        3.31096462035383
H            2.79057886087467       -1.87538368576813        1.19379354222733
H            5.23983149137787       -1.89552810941944        1.08977684385664
H            9.06560045773634       -0.69602048972797        1.41136538999776
H           10.28842807333600       -2.81303936165831        1.13714575019414
H            9.44456961173347       -4.52497582837798       -0.41403969362253
H            7.38558810460971       -4.11348197093790       -1.69563669108178
H            6.17662788170479       -1.98801044201290       -1.42672181620029
H            9.03881748118257        0.72184297597986       -1.12924930329404
H           10.33143586318790        2.80037957849778       -0.88226630649367
H            9.58823626026433        4.52623617745119        0.70495816874940
H            7.55949136081596        4.16711870372644        2.04828872404274
H            6.28190204654359        2.07936424299481        1.80802282931901
H            5.20527533995609        1.99743164063008       -0.62140548353458
H            2.76603555661268        2.03756640319432       -0.51063926947046
