63
 energy: -11.451083594544 gnorm: 0.000478257285 xtb: 6.5.0 (97a52f5)
C            0.70540536740110       -0.21379116218096        0.19097805665143
C            2.21039406472831       -0.40666131227755        0.08167028816106
C            2.94992971441634        0.03485537446731        1.34466442350448
C            4.49952813705073       -0.05670587255921        1.29584929765079
C            5.09034111418596        0.88474250062519        0.21632077103814
C            6.61856986450819        0.90753569221678        0.18674524058929
C            7.17105800155942        1.83667257162547       -0.88230315367546
C            5.05483881933222        0.28603130080016        2.68429710256678
C            4.98100367006251        1.45912193397555        3.40895135007360
C            5.56394782293929        1.51187432199466        4.66282574764545
C            6.21282146773534        0.40550635438482        5.18910273802287
C            6.29032265908123       -0.77198638422009        4.47230164245739
C            5.70534587062869       -0.83060424570401        3.21433254327016
C            5.65722556261960       -1.92677938360915        2.23849952269897
C            6.19905671680912       -3.20383746480358        2.29969419754091
C            6.06573194263647       -4.03893526017982        1.21195760624372
C            5.41235635529428       -3.61948743493578        0.04752695739189
C            5.28995357496148       -4.52493127268929       -1.11900851019417
C            4.93182358092140       -5.86009683932387       -0.95711930566318
C            4.80948185210743       -6.69542863353040       -2.04622125328859
C            5.04335813276394       -6.23889486642798       -3.33720188045682
C            4.89029267706108       -7.20220952883694       -4.52577414788504
C            5.83108491113309       -8.40707076191100       -4.33401123609233
C            3.43163466294309       -7.69086857712504       -4.59847131314473
C            5.24337054051057       -6.52197818804680       -5.86323469281973
C            5.40103521395424       -4.90517186421870       -3.49676111503475
C            5.52149363124878       -4.06366728766147       -2.41175745135596
C            4.87628239218136       -2.33056323114172       -0.00149294593060
C            4.97994653705886       -1.49892366650786        1.09289737693327
H            0.18313874331048       -0.53218570437767       -0.71438123283213
H            0.45314527961866        0.83428221002605        0.36331779470572
H            0.29385667486510       -0.78455125679942        1.02555201743166
H            2.59448296059363        0.14446209074174       -0.78565985398423
H            2.43281205709741       -1.46105088948555       -0.12296134201954
H            2.59880564682741       -0.56013922289339        2.19454904878654
H            2.67407168212587        1.06744861826301        1.58273921154980
H            4.71018638922660        1.89780754825521        0.38303805558609
H            4.71524231345532        0.58496946867744       -0.76663791143294
H            6.99397217063181       -0.11290266911350        0.03288406950335
H            6.99717681920311        1.20047874578565        1.17493804626786
H            6.83350246973309        1.53842185387112       -1.87688601560588
H            8.26352118795923        1.84574912998607       -0.89463342790003
H            6.83548853446754        2.86354714443229       -0.72392976402190
H            4.47585696440422        2.31438864422065        2.99473452934150
H            5.51331798695215        2.42366489661246        5.23563894537809
H            6.66283347413575        0.46520699077229        6.16687463450508
H            6.79530441786792       -1.63485668759555        4.87016432116022
H            6.72115392557841       -3.52242756869885        3.18497972078951
H            6.48801497246574       -5.02871270075649        1.24167459138180
H            4.73730842859667       -6.23237638586095        0.03423554565329
H            4.52221162112412       -7.72162134736898       -1.89478474307486
H            5.58662949660214       -8.96261735602981       -3.42953310487127
H            6.86714131411186       -8.07811294288164       -4.25550336215519
H            5.75879596730621       -9.09560179373923       -5.17580641067717
H            3.14857091762831       -8.22717261623585       -3.69346124321555
H            3.28716428339103       -8.36342856389130       -5.44385899066329
H            2.74890031230393       -6.84954413220828       -4.71641597112502
H            6.27240761526728       -6.16287772385450       -5.86093769947585
H            4.58189871948212       -5.67910471516369       -6.06258763551813
H            5.14087469126217       -7.22274859705280       -6.69177682842039
H            5.58915554997901       -4.51545136998462       -4.48143938605557
H            5.80767001539741       -3.03557188465263       -2.55500068107442
H            4.39366153920073       -1.98699802519502       -0.89773278481572
