55
 energy: -10.274402792162 gnorm: 0.000620851174 xtb: 6.5.0 (97a52f5)
C            0.75437167931507        0.26445698152303        0.41499448279595
C            2.26422021779653        0.44777015906807        0.43695717743877
C            2.98027939629691       -0.69259444311794        1.15981064863957
C            4.53038949170821       -0.61297031388670        1.19372072976227
C            5.13572577224319       -0.65894482494785       -0.23176833952104
C            6.66394758976461       -0.69755576513683       -0.24975980036385
C            7.23477777360353       -0.73274552441379       -1.65803458809452
C            5.02284398590772        0.61865851688325        1.96487370692402
C            4.95337050555122        1.96281018669089        1.65404236593885
C            5.51021677986310        2.88563652810914        2.52157229285731
C            6.14221480514180        2.47421677780810        3.68414247238937
C            6.23860042463096        1.13309562436784        3.99394297637562
C            5.67983213364027        0.20293051230520        3.12736648102521
C            5.70179945614740       -1.26300601782592        3.17760219507268
C            6.26569777064395       -2.12379384438688        4.10985319994677
C            6.18001013509849       -3.48247254170295        3.90086198121483
C            5.54182426848321       -4.01200599574660        2.77078726508601
C            5.47379596566182       -5.47240581398013        2.55671847381959
C            5.30974525954325       -6.35296898477494        3.62791150881823
C            5.25038970816415       -7.70860135169240        3.42465401694113
C            5.35207743564705       -8.25698245465667        2.14073599266689
O            5.28231982316205       -9.64797159051121        2.01722757829114
C            5.39079862766328      -10.12815518173595        0.69506634300319
C            5.51665654409814       -7.37189693989222        1.06845463597849
C            5.57437867781524       -6.01585685123357        1.27411399933569
C            4.97787405953038       -3.13137270135863        1.84193133921412
C            5.05984866733659       -1.77205618688107        2.04681988691080
H            0.24930567231874        1.08013187567318       -0.10738239678402
H            0.34760456538112        0.22054287642739        1.42714467970050
H            0.47678947462955       -0.66619929317358       -0.08348231673844
H            2.51290568160640        1.40039957969168        0.91966195564202
H            2.64419265094608        0.53398483388921       -0.58853044560114
H            2.69405321292883       -1.64531467101532        0.70267831859426
H            2.61916115193080       -0.74864258567299        2.19208233540206
H            4.78968009925527        0.21052928574565       -0.79798728685274
H            4.73934810476752       -1.53320677942052       -0.75784330475237
H            7.01241723473533       -1.56840689757319        0.32082528006996
H            7.05527921130007        0.17120896797579        0.29570170261739
H            6.88196902100702       -1.60931620815096       -2.20451041364389
H            8.32664965945232       -0.76281410770415       -1.65788533984103
H            6.93015525674927        0.14637951098777       -2.22883152232738
H            4.49479195657462        2.28066904530240        0.73434630223210
H            5.45779453336567        3.93621960730751        2.28657861033378
H            6.57210627473489        3.20711473352324        4.34729682651802
H            6.74462591701922        0.80110767893177        4.88342740037877
H            6.76594738117640       -1.72401566739356        4.97437081125261
H            6.62998320266666       -4.15761366296161        4.60784391938907
H            5.21452452602483       -5.95502865436014        4.62340646141668
H            5.12167346248093       -8.37937002039905        4.25570730944307
H            5.31990115978615      -11.21660228530543        0.70827975350767
H            6.35562098896039       -9.84517621107863        0.27164038603587
H            4.57848965995525       -9.73194312670988        0.08417041847055
H            5.60162856890035       -7.75608964824994        0.06828076422525
H            5.71719119860875       -5.35375519824320        0.43746710535711
H            4.47029321827884       -3.51113093691923        0.97447366348733
