119
 energy: -22.078842700106 gnorm: 0.000258481691 xtb: 6.5.0 (97a52f5)
C            0.91076769580010        0.15537260189176        0.42744602916760
C            2.42218666386654        0.22910059540366        0.58369322749323
C            3.08633007257340       -1.14365869917349        0.48453019575490
C            4.63699305684181       -1.15965908964726        0.57027490643859
C            5.27946925096747       -0.41015998834832       -0.62348073112021
C            6.80636511254000       -0.47651537104881       -0.64455306414305
C            7.40918449971743        0.26781567559856       -1.82520518487802
C            5.13768997057023       -0.60783585783090        1.91132435563490
C            5.12592562459143        0.67825731452152        2.41574943485472
C            5.66808240637598        0.91727834960969        3.66621592077308
C            6.22822662291377       -0.11330091340427        4.40449678527917
C            6.26650466493063       -1.39790631262427        3.90104763167776
C            5.72221056961284       -1.64327718210037        2.64724233422550
C            5.69298406817295       -2.88000309103712        1.85672830864917
C            6.16171937955197       -4.15218623900591        2.15739876694126
C            6.02994399319155       -5.15047745038735        1.21712752750420
C            5.44787248422431       -4.90379848264372       -0.03244215420451
C            5.30903114967081       -5.99524398506781       -1.02487383589077
C            5.78738904328827       -5.83960625066374       -2.33199960796097
C            5.66604718966823       -6.84594080202881       -3.26546464436646
C            5.04792906652911       -8.03469739082676       -2.89707112796207
C            4.55416463683460       -8.19862621368967       -1.59998057868903
C            4.68858332252805       -7.19474240562010       -0.66719614545428
C            3.89846403444410       -9.57792479601644       -1.47105502307498
C            2.41020603630756       -9.44459259709336       -1.06139005929918
C            1.59519364776796       -8.54475432936904       -1.99053707407872
C            0.13920056199817       -8.43005372817300       -1.56918253995782
C            4.70285072678339      -10.41520190778032       -0.44014087336180
C            4.27367253533888      -11.87334958241429       -0.27953879951775
C            5.07483869686972      -12.60080361862145        0.78942945495379
C            4.03244108673041      -10.14083815535409       -2.89026721713475
C            3.54150345197017      -11.30591884606877       -3.43724572459510
C            3.79867936626375      -11.60860219079555       -4.77638869787626
C            3.28787546430129      -12.86985784551864       -5.36337628608416
C            1.92630841457621      -13.18837731785701       -5.28696953080512
C            1.43490223664536      -14.36723707242375       -5.80361246191775
C            2.31621422442346      -15.25620239204637       -6.40521611863813
C            3.67797777230059      -14.95544758928658       -6.48310780299800
C            4.16330825437839      -13.77053379953202       -5.97503783251475
C            4.42173556273243      -16.11684900389442       -7.15317469089176
C            5.49423737503746      -16.69982680515438       -6.19804899774307
C            4.94475449941336      -17.10567271307066       -4.83001833663901
C            6.01463113746349      -17.67126852281275       -3.91006269032577
C            5.05212849882842      -15.60520073739005       -8.47636109379468
C            5.76011313089863      -16.65462213000080       -9.33277468371854
C            6.40897602327432      -16.05340328796189      -10.57029415247762
C            3.29780136916040      -17.13064986231297       -7.40504020915636
C            3.34266237850140      -18.42007917010871       -7.89929190856853
C            2.16885681115624      -19.14617080641745       -7.99840848113904
C            0.96076085675608      -18.59871441941246       -7.59655316995640
C            0.90703178600170      -17.32109505912056       -7.07720672087825
C            2.08189305052629      -16.58734220563999       -6.97807361355763
C            4.54393493687094      -10.70855834980867       -5.54757006299392
C            5.00419390852708       -9.52281051844469       -5.01830102670494
C            4.74215360642845       -9.23369495436385       -3.68451824889896
C            4.98427196934538       -3.61840639265259       -0.32415460099249
C            5.10311673760302       -2.61983458265338        0.61745532523975
H            0.43983191118768        1.13735126367432        0.51514634055226
H            0.46654633899361       -0.49087043793609        1.18719804924873
H            0.63392573636581       -0.25555089777995       -0.54549822364534
H            2.67202657292960        0.68697984799688        1.54881144160100
H            2.84321445316134        0.90168485069723       -0.17406502084697
H            2.78789292662865       -1.62433221810478       -0.45299864620499
H            2.69432460355274       -1.79066001339656        1.27668825515313
H            4.96333936882359        0.63694646248902       -0.60305204633056
H            4.88061383319237       -0.82186675832123       -1.55627244101052
H            7.12475829275542       -1.52729777048706       -0.65731543092403
H            7.20016914384325       -0.07407934565154        0.29813533341106
H            7.05636037946914       -0.14414044320551       -2.77276829439531
H            8.50047551474032        0.21607463702436       -1.82995799888349
H            7.13025444648335        1.32330574785478       -1.81003072763625
H            4.71912495997042        1.48356574151328        1.82947635754359
H            5.65855524608680        1.91752814283165        4.06810264901461
H            6.64697602183059        0.09157894806617        5.37649356622240
H            6.71676864101085       -2.20143751583076        4.45736045321196
H            6.61807890153000       -4.34392344470074        3.11273262051067
H            6.38698198027861       -6.14282078301084        1.43363766601511
H            6.26424916867447       -4.91245249286544       -2.60047433193623
H            6.03307372680354       -6.72140504360910       -4.26919448478898
H            4.30284484420357       -7.32619643548802        0.32735287899201
H            2.35706714202429       -9.06110663436467       -0.03735408293938
H            1.95476962028411      -10.43876068540547       -1.02996713368711
H            1.66332214893072       -8.92708621502106       -3.01766648287675
H            2.05679725674269       -7.54917252340826       -2.02955295188865
H           -0.34704902467670       -9.40757394229331       -1.56022976198419
H           -0.43279556486863       -7.78415646349403       -2.23952186544577
H            0.05161255355931       -8.01791712866389       -0.56193701360446
H            4.64737364937503       -9.91194199672895        0.53079439029694
H            5.76050031269670      -10.38004745763552       -0.72262301524887
H            4.38057990617555      -12.39431382649206       -1.23895843997463
H            3.20379451882421      -11.92153850520514       -0.04091535774068
H            6.14099022716785      -12.59800543034346        0.55397485320825
H            4.76494361522303      -13.64295431391972        0.89734312860170
H            4.95970692626402      -12.12155620071800        1.76365543693072
H            2.95279735169392      -11.97992834831908       -2.84247002477747
H            1.25802587289195      -12.48924298230305       -4.81399425482307
H            0.38887146004741      -14.61056217234379       -5.73802388801437
H            5.21381301947231      -13.54946339951275       -6.02739908909092
H            6.29277270305772      -15.96205893867798       -6.06919331161242
H            5.96446919095586      -17.56723795370667       -6.67045342604399
H            4.13663199720961      -17.83659945292672       -4.96593415973817
H            4.46334062372178      -16.23813666330759       -4.35953969899695
H            6.48112315523406      -18.55721781632787       -4.34531459056623
H            5.60964412748762      -17.95744745051067       -2.93650574949827
H            6.80881941199161      -16.94298628982864       -3.73416483091237
H            5.75707242065535      -14.80328933546915       -8.23307049025749
H            4.26469505020162      -15.12633611396355       -9.06811258860557
H            5.04287438744390      -17.42910750561251       -9.63072345578864
H            6.51652904546096      -17.17521353544628       -8.73216594932697
H            5.66933777771202      -15.55879354976576      -11.20298185836627
H            6.91040961505091      -16.80895763413465      -11.17977440494902
H            7.15412467471547      -15.30253131465799      -10.30001237086322
H            4.28479616965020      -18.85905142598147       -8.17702150295680
H            2.19599898321861      -20.15123917697431       -8.38725236707969
H            0.05644833594238      -19.17961643520159       -7.67952157178173
H           -0.02229390323218      -16.89395970221419       -6.74287850166810
H            4.73758246186187      -10.94865380113584       -6.57902700441986
H            5.55337836240551       -8.82062585912128       -5.62086188783604
H            4.52246671028836       -3.41434738292938       -1.27296709020721
