49
 energy: -9.707098242571 gnorm: 0.000784806463 xtb: 6.5.0 (97a52f5)
C            1.28313650602413       -0.70908163759003        0.09588542601447
C            2.74961711305391       -0.63053044824033       -0.29855836798183
C            3.21817910529763        0.79710457411758       -0.57126410232996
C            4.66300049184229        0.87496424399029       -0.96483161518213
C            5.20038364667686        2.04052234804004       -1.44968187481742
C            4.35174681539048        3.26747455437681       -1.62549033427860
C            3.81711692207463        3.42304019300625       -3.05089215900272
C            2.95724629662125        4.66405123976729       -3.22538174158458
C            6.58325868320628        2.06146760645724       -1.84253716010732
C            7.21071734140498        3.19358483094277       -2.37477179531751
C            8.54111730156272        3.16494446344056       -2.73904517631469
C            9.28229404129117        2.01530713611929       -2.58564329901699
C            8.70676744073265        0.85909318836702       -2.06260324152607
C            7.34547028125510        0.88608960467055       -1.69109267715019
C            6.72675697855174       -0.28311097267666       -1.16020761674542
C            7.47490211573681       -1.43004856182061       -1.01148612114188
C            8.84018077380954       -1.51097566978496       -1.36627927635736
N            9.47541295206031       -2.67012708596931       -1.18805617085082
C           10.76466664195504       -2.66577685332286       -1.54989553518943
C           11.52726413312099       -3.84766582371861       -1.39902496367213
C           12.84255785018851       -3.89239266213552       -1.74974054986555
C           13.46987606335392       -2.75844027445727       -2.27200260373860
C           12.76918838609466       -1.60063541264755       -2.43396791034972
C           11.40425595142043       -1.51103765938270       -2.08285671674232
N           10.75726966873485       -0.34598980413146       -2.26123233550450
C            9.48377054127558       -0.35357466092937       -1.90362547177258
O            5.39058013443508       -0.28103939177994       -0.79856699251449
H            0.96581848902058       -1.73648834439180        0.28837217139197
H            0.64136371240904       -0.30828791041367       -0.69125754006963
H            1.08614879183243       -0.12869705455142        0.99933632628580
H            2.93979322554824       -1.24518043019143       -1.18818126922372
H            3.38051093423451       -1.06917608345944        0.48563356073991
H            3.05483947316435        1.41219661970409        0.32026620609059
H            2.59917317708514        1.23457426331900       -1.36155836096169
H            4.92580928184122        4.15534860440027       -1.33984571256018
H            3.51722318378034        3.25264811080115       -0.91698871102482
H            3.24753643912162        2.52541875824952       -3.32431266184807
H            4.65981765495838        3.44377434921106       -3.75404847391167
H            2.09240520295615        4.64046850771864       -2.56017443584622
H            2.58378145838970        4.76435374103863       -4.24656967272903
H            3.51908582799298        5.56964200809016       -2.99079725078160
H            6.65093981428378        4.10182497170466       -2.50774900378818
H            9.00364573468502        4.04856709906962       -3.14739718764778
H           10.31934150277623        1.99343093327230       -2.87032640714408
H            6.99758767215326       -2.30324785527247       -0.61027162982245
H           11.03972810141368       -4.71835792397591       -0.99692950669723
H           13.40375278893333       -4.80393511276702       -1.62516704120736
H           14.51094532409152       -2.80227983711631       -2.54705109770944
H           13.24853803215514       -0.72553447914734       -2.83633191849399
