85
 energy: -15.462906907653 gnorm: 0.000830299624 xtb: 6.5.0 (97a52f5)
C            9.29408401220350        0.29462691326331        4.60625224003091
C            8.02724467079910        0.65113017782396        3.84546076126045
C            8.30437662420251        1.42475388492162        2.55134023314717
C            9.09530954015409        0.63486967901753        1.55612541965742
C            8.59854028478092       -0.33777725056963        0.74423413127508
C            9.70494128542222       -0.85073665606650        0.00845072796676
N           10.83300075895212       -0.22296046800028        0.36351993535402
C           10.51811555476893        0.68856432740763        1.30212573441000
C           11.42355205317777        1.56628610932017        1.96014641600594
C           12.77729472320666        1.75490623573245        1.80128225612453
C           13.70754185123667        1.14423835310050        0.92079104093331
N           13.47349767513016        0.14889526033217        0.00932026297521
C           14.61603016172344       -0.22494580311478       -0.63589340585262
C           14.61626842652359       -1.29112372616509       -1.59818831875568
N           13.47611086010678       -1.89785064010232       -1.95539388517301
C           13.77631261330730       -2.85990573649325       -2.84929303917692
C           12.87186290383645       -3.75040050096907       -3.49607580635852
C           11.51167980764678       -3.92233086397643       -3.37299260035214
C           10.57668054939565       -3.27468276634978       -2.52762940542151
N           10.84083173319401       -2.28875671278304       -1.61413820004454
C            9.70413704363057       -1.88426541709910       -0.98072108841010
C            8.64252887535462       -2.65463304341244       -1.50893844721601
C            9.16769027837216       -3.51419162528552       -2.45061279033920
C            8.38259381496291       -4.46808693274711       -3.29291459935405
C            8.04268707125999       -3.90109110181619       -4.67223369356209
C            7.24970320832634       -4.87342212712981       -5.53074270031244
C           15.20098093981495       -2.86600138674030       -3.07661084428470
C           15.94709328705890       -3.78740647962828       -3.99365321974334
C           17.45704310637307       -3.54055998389021       -4.04710178971793
C           18.17405331619656       -4.48698534643425       -4.99685624191708
C           15.71578605532881       -1.88567744731745       -2.28573203473328
C           15.65822432017416        0.60578537812834       -0.12782218700196
C           17.10510848233583        0.57868380484570       -0.48204966993783
N           17.93417403638476       -0.09550129652249        0.54164938758833
C           17.53886167015486       -1.48549030705221        0.86577523027357
C           19.36072716052965        0.01650257163376        0.20867642289869
C           15.10168691437114        1.43872799098535        0.82798291401426
C           15.85506654482734        2.40833423112488        1.68230646856972
C           16.38853159775941        1.77122142011138        2.96553025093631
C           17.16848453587843        2.74855204777777        3.82961941859513
H            9.08148397079968       -0.26140023145984        5.52185623666103
H            9.85033773876117        1.19026717710723        4.88778247309182
H            9.95933077454121       -0.31990295922403        3.99691739021618
H            7.35623509389708        1.23352431886453        4.49209431368907
H            7.47114994084580       -0.26357198874647        3.60197124824107
H            8.82776631684598        2.35820263518156        2.78126453808521
H            7.36182481655731        1.73159586385900        2.08216006451562
H            7.57388937706086       -0.66066442291310        0.67696804275606
H           10.95873643965968        2.18595196842228        2.70947230095359
H           13.21866459918338        2.49441515933479        2.45008821023464
H           12.55280523418944       -0.25653721943512       -0.11756601662109
H           13.35338268799718       -4.40374353324651       -4.20648401492091
H           11.07541133976999       -4.67577695003878       -4.00909229048201
H           11.77232279801293       -1.91013934183991       -1.48558653453986
H            7.60550714259879       -2.57464986259624       -1.23262560358279
H            7.46041184092815       -4.73940164542224       -2.76621166566836
H            8.94006713423526       -5.40544182860381       -3.39898702692056
H            8.97081408904396       -3.61319792914174       -5.18352195127933
H            7.48655956996137       -2.96226332919203       -4.54831949288556
H            7.80443698400700       -5.79959347976434       -5.69241898349633
H            7.01341551796774       -4.45604972274113       -6.51220179372003
H            6.30625116179677       -5.14320688291640       -5.05242476672938
H           15.52903556621068       -3.69800701564046       -5.00287989142663
H           15.75750499513629       -4.82278381697548       -3.68806993334540
H           17.87526712208554       -3.63236800272844       -3.03608659215581
H           17.64316111480069       -2.49894825729215       -4.34041261678742
H           18.02831786706517       -5.52761630643326       -4.70129221312976
H           19.24998360365857       -4.30069575431679       -5.02717466963361
H           17.79441628810677       -4.38631836848113       -6.01528008152226
H           16.75721753730940       -1.64386108261635       -2.18417963241465
H           17.46789517563811        1.60311666241070       -0.60121489825179
H           17.25902249684084        0.09848916078728       -1.44855081735728
H           16.48838844831809       -1.51999421556523        1.14706866433127
H           18.13065590240709       -1.85850182227548        1.69933344508782
H           17.69321261484412       -2.13640067369744        0.00791088796904
H           19.63721086343130        1.06070856092221        0.07317015862780
H           19.58168893170505       -0.52694306063477       -0.70842688773896
H           19.96715557788018       -0.39515923705600        1.01345856574414
H           15.21373814158698        3.26278933976791        1.92436872844269
H           16.68552097956703        2.83280170489620        1.10783630113372
H           17.01859259283159        0.91118656928494        2.70321899308408
H           15.55063624292561        1.34457203881870        3.53269945523634
H           18.02560898741294        3.15495906440895        3.28940607902608
H           17.54657253091729        2.27945307955701        4.74080645069697
H           16.54612350181398        3.59399087139940        4.12895054238661
