76
 energy: -14.228010543284 gnorm: 0.000516156924 xtb: 6.5.0 (97a52f5)
C            2.51931717286679        3.87383739573617       -2.59287173016821
C            3.84716465790017        3.19584705497302       -2.29529677494308
C            4.02375936312335        2.86416440818932       -0.81278721333895
C            5.33746628948623        2.21626329579226       -0.51287309005481
C            5.60136880081973        0.87557059748690       -0.50872666177928
C            6.98065215289505        0.74322018674337       -0.19789503989472
N            7.54183392667735        1.95246934797784       -0.05807701277938
C            6.58153295308977        2.87181122385248       -0.21973513908767
C            6.78064349697888        4.29445473763236       -0.16840504786417
C            7.53836552469293        4.99194466590111        0.72534318482962
C            8.73058727562320        4.58087688360912        1.40443099909854
N            9.35850024692080        3.36399901249979        1.29728925897657
C           10.43017454164591        3.29050234077149        2.13835285862656
C           10.52769959630311        4.52941835192534        2.78610126507960
C            9.48589224395459        5.33273948265677        2.33685944094706
C            9.23716259589737        6.75019179084731        2.74378273881468
C            9.75936644072717        7.76057835885967        1.72084452485217
C            9.49305764613731        9.20184145548227        2.12460641042502
C           11.17822211309993        2.06698777340770        2.34512130339211
N           11.05861273866105        1.00457186835392        1.53723022339848
C           11.73022610047871       -0.01173101897535        2.10709733546210
C           11.85148856773083       -1.37071707799220        1.55713279125919
N           13.05189933341674       -1.97635763272575        1.65331027266168
C           10.80083744812126       -2.11334354445158        0.95016138446685
C            9.52511559656037       -1.72832087141091        0.55535957246865
N            9.00422386971993       -0.44495454409559        0.49969820959146
C            7.74540130234896       -0.45566537271539       -0.00553304345441
C            7.41071366581073       -1.80846416207264       -0.27948399781964
C            8.49219811138743       -2.59009370562843        0.03565823627623
C            8.56185827057126       -4.07870236398085       -0.08383900864428
C            8.37993539076878       -4.79366747048626        1.25604029353885
C            8.47177447131124       -6.30629130298730        1.13384670922682
C           12.33298791168242        0.43517153150744        3.32819636997238
C           13.01306006753096       -0.39180434638702        4.37326189146882
C           12.03363368869102       -1.26885626990284        5.15493095705506
C           12.71501572890894       -2.11388502662143        6.21891242412789
C           11.97542846153839        1.74885783110487        3.46733787132000
H            2.40423579999665        4.10302861041765       -3.65460301384656
H            2.42329838038886        4.81142213354004       -2.04205840055352
H            1.67911337193594        3.24150241950070       -2.30009466551893
H            4.67979820978071        3.83090063665993       -2.62541479095822
H            3.94443382584710        2.27437685931260       -2.88466360868980
H            3.21327323091873        2.20526640383721       -0.48062361741487
H            3.92104229179276        3.77378266647071       -0.21039382135061
H            4.90015682387083        0.07822693875392       -0.68590721551061
H            5.99770223367579        4.85569501244311       -0.65511233363187
H            7.23377124848697        6.00491460605852        0.93188522245354
H            8.94452939468922        2.57550285445291        0.81312870012436
H           11.26837857241200        4.80326436454376        3.51752788431006
H            9.70421149748995        6.93379177867079        3.71823370658133
H            8.16375370595184        6.89975206581108        2.90553634075844
H            9.30673532210315        7.55125657301765        0.74265209087890
H           10.83552625692088        7.59952217507888        1.57328674880929
H            8.42377970955834        9.38743258035767        2.24164836151400
H            9.87068157732106        9.91156362592843        1.38508619403666
H            9.96711680915046        9.43845376059480        3.07893110811543
H           13.89614736881163       -1.50676345537271        1.93687039157321
H           13.25328880434397       -2.88641354131824        1.27251200838788
H           11.04023715606533       -3.14544803824684        0.76446723988050
H            9.52551914002152        0.37018480282202        0.80574273724047
H            6.47644444446196       -2.15539306003974       -0.68523154880494
H            9.51999398090087       -4.36272303295819       -0.53330094547778
H            7.79894711453731       -4.42056140845105       -0.79270236998120
H            7.41352190269429       -4.50460443625443        1.68993974169822
H            9.13012894705362       -4.42481103782451        1.96789175765939
H            7.70966858041000       -6.69436625104280        0.45558713412062
H            8.33975425476429       -6.80472143892043        2.09675266622538
H            9.44152638190284       -6.61149456369404        0.73633938032091
H           13.54909760434705        0.27007182306291        5.06313068398782
H           13.78698305243685       -1.01453636248224        3.91609390250984
H           11.48770699371937       -1.91176612192835        4.45194617008518
H           11.26410572549850       -0.63136433650106        5.61018382721170
H           13.45823932415480       -2.78003966208750        5.77706241808804
H           12.00321671730496       -2.73404511325385        6.76837583507979
H           13.23540185764164       -1.48808144793617        6.94621842781191
H           12.18777462260339        2.39027573209627        4.30578288483652
