90
 energy: -16.716762486197 gnorm: 0.000777795630 xtb: 6.5.0 (97a52f5)
C            1.81248633484591       -2.13147394686057        2.45043352644830
C            3.11954869040715       -1.55787444672408        1.92592504278288
C            4.11967392574731       -2.64193357757643        1.51626135533927
C            5.40003041292526       -2.11534005148975        0.94241705673513
C            5.89643716563238       -0.84617808775116        1.03776175182358
C            7.13923212616969       -0.84972515243722        0.35105112052347
N            7.39486089456048       -2.07109037393747       -0.13099466532124
C            6.37304273556474       -2.87069976967344        0.19902029490993
C            6.25225533136020       -4.26007704258230       -0.13307629833365
C            7.04281340799792       -5.05632371603369       -0.91395144804153
C            8.25032366875878       -4.75605517523143       -1.62061692722230
N            9.01037055288248       -3.61761182201625       -1.52221919443127
C           10.05360798063842       -3.64261989857120       -2.39949634114058
C            9.99148169393787       -4.87325597487819       -3.07124070753083
C            8.89301646097240       -5.57027635336464       -2.58945200363869
C            8.48037311889213       -6.94422934387600       -3.01164665535491
C            8.95367800372876       -8.03008576224492       -2.04364032250677
C            8.52876976042133       -9.42646159846615       -2.46905368981571
C           10.92434492841122       -2.50430747433613       -2.60432787412209
N           11.05659826164193       -1.52651079013496       -1.69839368244861
C           11.79108611556235       -0.55168122679011       -2.26355719748411
C           12.15761311340334        0.71415946689358       -1.62173829416948
N           13.44119191995447        1.20224288486709       -1.75601498335631
C           14.62544516543460        0.53338993079211       -2.10876339045311
O           14.69360364124908       -0.65651861256271       -2.31269173497598
C           15.87176286885733        1.36326601620769       -2.22582123812253
C           16.96076772949071        0.88834338460597       -1.27351835385119
C           18.25380073924979        1.68172443841256       -1.39870369137206
C           19.31485361542894        1.17396352743375       -0.45834355736724
O           19.36088906339283        1.62994874273676        0.66618077323639
O           20.14776759216010        0.20560434737695       -0.93205674618596
C           11.26958254236303        1.51868183582945       -0.87708677224698
C            9.96999157715970        1.27757311810104       -0.42619436749972
N            9.24754745495076        0.09849841976725       -0.48040263326907
C            8.06292206819976        0.23161994769302        0.17337840472746
C            7.98610734855875        1.56573771316112        0.64388547906494
C            9.14581611370765        2.20956657067208        0.29495066676891
C            9.46629754706185        3.64330877766071        0.57262624283561
C            9.29743013300988        4.53842232365735       -0.65612388427580
C            9.64116399720293        5.99321123178629       -0.37880719287140
C           12.13065697658199       -0.92585289098794       -3.60730622400501
C           12.76899879036928       -0.06829366447381       -4.65225543998797
C           11.83342706146204        1.02267494531482       -5.17347625510922
C           12.48919355640276        1.91423405596818       -6.21531374620906
C           11.59031990349386       -2.16353624793446       -3.80580655567687
H            1.10780227262103       -1.34857823948211        2.73806926533838
H            1.98096742559535       -2.76024055106407        3.32617321310712
H            1.32432879103050       -2.75241676958695        1.69756159512853
H            3.57638762951717       -0.90990700388120        2.68476114166972
H            2.92680469538783       -0.90284417126109        1.06641433836598
H            3.64776066267875       -3.30481649308936        0.78280766311521
H            4.35122738300602       -3.27536714348934        2.37969414625772
H            5.44408999980589       -0.00527832830025        1.53381290284759
H            5.37892390978117       -4.73256479401571        0.28608206347999
H            6.70053199143755       -6.06961942414502       -1.04980722534700
H            8.70772154797988       -2.79972468768718       -1.00702882590135
H           10.67403432677000       -5.21319996994642       -3.83070016058366
H            8.87283398307026       -7.14554606977653       -4.01475227026163
H            7.39039196791776       -6.98226799744404       -3.11479631845011
H            8.57396723799267       -7.80854372988688       -1.03792962587274
H           10.04619556218988       -7.97713239531990       -1.95054876794314
H            7.44227672139701       -9.50469099881084       -2.53347337220489
H            8.87248669919482      -10.19053907561839       -1.76874498053288
H            8.92894648692331       -9.67739525859011       -3.45270739817939
H           13.57881779039552        2.15406811836079       -1.43238309856648
H           15.64157613152763        2.41678812299339       -2.04157691283953
H           16.23099241748109        1.31181911872601       -3.25817580484982
H           17.15997104293557       -0.17477648551893       -1.45235765025412
H           16.59593459612326        0.93779313654112       -0.24068064566444
H           18.06788988768915        2.73780856672830       -1.18205380592224
H           18.62259342659531        1.65049611936414       -2.42803271739186
H           19.93395327977005       -0.02385817696721       -1.85904649307897
H           11.67089491881983        2.47321434040306       -0.58618913492251
H            9.61219864921915       -0.75936134310161       -0.88366503082705
H            7.16562179815919        1.99436309651517        1.19217906298898
H           10.48957580109204        3.72025396504114        0.95591981580276
H            8.82645256408232        4.00569799952196        1.38499978326614
H            8.26594086823847        4.45468779167719       -1.02252749572874
H            9.91961689119441        4.15187823948693       -1.47359332465477
H            9.00776599819654        6.40546368346028        0.40808086206488
H            9.51593911563426        6.62012937826827       -1.26385909382290
H           10.67519544217987        6.09668497114975       -0.04649939670398
H           13.10802870247821       -0.69882527604839       -5.48156621564386
H           13.67627148993010        0.38559802370570       -4.24418779909465
H           11.47994808715642        1.62633279558841       -4.32747976680857
H           10.92952055862751        0.55584997383941       -5.58580289776915
H           13.36964213524361        2.41388803001305       -5.80800561859767
H           11.80970407404714        2.68792071590084       -6.57858903604819
H           12.81844687538600        1.33409302442760       -7.07882764867060
H           11.59491607319481       -2.72964350665066       -4.72146696709459
