75
 energy: -13.998128073455 gnorm: 0.000760014501 xtb: 6.5.0 (97a52f5)
C            2.50046655803139        2.70324235824564       -3.55101056520793
C            3.58203564368957        1.96293323972535       -2.78071009250209
C            4.77026108178894        1.56627192796845       -3.65838530288513
C            5.83861664217501        0.84593781930804       -2.89923602686223
C            5.99980173831683       -0.50712215040612       -2.81699105437452
C            7.10285439118889       -0.72381527623607       -1.94809543856376
N            7.58536206256829        0.44914443342323       -1.51347687660131
C            6.85007784050566        1.42650953386310       -2.05614521518934
C            7.02139646747343        2.83326468962594       -1.83454002343009
C            7.90464795614118        3.50671950017162       -1.03879856245911
C            8.95268487289509        3.02307560871102       -0.19191749142639
N            9.38850090900691        1.72816661728739       -0.05913561934141
C           10.38821976954926        1.63481208902770        0.86296506779958
C           10.62938344950256        2.93279161424259        1.33498606011781
C            9.75252366915681        3.79448583609714        0.68974413826947
C            9.70189835782013        5.27823517036321        0.87063780698339
C           10.49729393699824        6.03475667926155       -0.19440163078963
C           10.43880562173339        7.54314923236080       -0.01342781763289
C           10.97252230121408        0.37372614409373        1.26163859299094
N           10.73459189442534       -0.76521318185177        0.60402851353701
C           11.32191136916190       -1.76399485386174        1.28806160933709
C           11.30669196123267       -3.16906730756013        0.88318748128886
O           12.33069766492076       -3.97089472904045        1.26434981998847
C           10.30299194257081       -3.82130469461842        0.10533373793703
C            9.18563441084296       -3.34888128652639       -0.56787559953895
N            8.77609391934767       -2.03586312501106       -0.73458147798061
C            7.69243944398197       -1.96442548428465       -1.54847994638536
C            7.35203541030024       -3.29566009141756       -1.91578886187712
C            8.24429141341812       -4.14640189676096       -1.32083993888608
C            8.28199450181475       -5.63019583561208       -1.49512338958409
C            9.23386755111919       -6.07487908587083       -2.60691748938242
C            9.29093697243720       -7.58571600002275       -2.76419972907516
C           11.97585004281577       -1.22335606163912        2.44867038526993
C           12.64764155588728       -1.93541136250585        3.58390477623923
C           11.75239266970567       -2.97414650512392        4.26317689719476
C           12.42896311799219       -3.65671304909700        5.44071891726566
C           11.75312787137145        0.12493548930063        2.41291904689393
H            1.65916378797642        2.98100285683595       -2.91237945100135
H            2.10716126758204        2.09176775350075       -4.36506066018771
H            2.89118112314751        3.61973468226510       -3.99678215679312
H            3.16530496965942        1.06216248526596       -2.31101092944944
H            3.93957363020461        2.57732222784030       -1.94408793888868
H            5.19765946558699        2.45444228282627       -4.13659451055891
H            4.42568890849423        0.93286492708294       -4.48370441557996
H            5.40666752334786       -1.25924558213765       -3.30806739205305
H            6.32014506547464        3.44494702037187       -2.37858768684817
H            7.80216702534434        4.58010254408339       -1.02894303609409
H            8.93514054704919        0.94574494580905       -0.51528254213479
H           11.36518197864412        3.21186184159212        2.06923664125548
H           10.08155721978838        5.53276169797742        1.86686143574604
H            8.65795469973357        5.61100761213397        0.86707710782616
H           10.12461498247420        5.75729951034296       -1.18914536583985
H           11.53961696933249        5.68997320060382       -0.17719712767174
H            9.41085107904298        7.90672317799813       -0.06314492325229
H           11.01139331389157        8.07079935652216       -0.77933007980666
H           10.83834614753363        7.83967480024133        0.95807061411157
H           13.04545408395131       -3.43604428587605        1.66722279605385
H           10.47023256602744       -4.88000704281485        0.01458759271726
H            9.29799044583119       -1.25708562715059       -0.34840797761739
H            6.54377745260411       -3.58214089873437       -2.56552082328717
H            7.27019688512298       -5.99485421117764       -1.70484604980257
H            8.56601555712361       -6.10073491806739       -0.54746439812759
H           10.23683030641038       -5.67678318586684       -2.40468425361898
H            8.92915647535589       -5.60478840980455       -3.55117371516718
H            9.62322222454591       -8.06458383553532       -1.84152447095808
H            9.97716715946679       -7.89019888026513       -3.55750594864327
H            8.30805611574807       -7.99520363983737       -3.00324015254843
H           12.96115681540673       -1.19321903911941        4.32750059885171
H           13.58213421852817       -2.39382408162346        3.24502620354136
H           11.43704133021005       -3.72116149534663        3.52382992744611
H           10.82270210580864       -2.48885979078666        4.58800674215144
H           13.33798602107056       -4.17329061518561        5.12815406324477
H           11.77885563867459       -4.39475662953026        5.91569316981547
H           12.71677611514309       -2.93264977806328        6.20484077168833
H           12.05601179560180        0.84784301797002        3.15103364036259
