103
 energy: -18.649749744668 gnorm: 0.000733261209 xtb: 6.5.0 (97a52f5)
C            1.40296190232036        2.65467536208284       -3.64986236658135
C            2.78134410230923        2.25267372194319       -3.15005600029145
C            3.90706463954336        2.70399368220278       -4.08218033842289
C            5.26264982892059        2.31409558669993       -3.58543085958312
C            5.96814235106730        1.20532754987990       -3.95191987352131
C            7.16081107034126        1.21855113344544       -3.17861788934117
N            7.17533396757190        2.28717975441482       -2.37171836945136
C            6.04562293430769        2.97675514983510       -2.57448059202321
C            5.65981846834635        4.17438106354699       -1.89275549120024
C            6.27281685781973        4.85523651627470       -0.87595489437672
C            7.49191434893071        4.59088160972618       -0.17941099448380
N            8.41298658307884        3.60978758736693       -0.44831569010726
C            9.43736903471090        3.63108061215418        0.45035567240234
C            9.18085684331909        4.69212751975480        1.33399234284598
C            7.99034063312679        5.29024409367307        0.95304824919584
C            7.37488477572125        6.48851767777951        1.60245767241358
C            7.70158175129759        7.79285694254905        0.87332307404000
C            7.07531790045596        9.01096858505381        1.53311597580510
C           10.50354159414658        2.65926218722232        0.45077105188578
N           10.69807500342546        1.80522060117449       -0.55916035776337
C           11.69978218256841        0.97789821676478       -0.21129346159121
C           12.20900605886656       -0.11095700252933       -1.03329406520131
O           13.49398012931729       -0.61630026135987       -0.82067524332775
C           14.55794132424569        0.26944951690620       -0.74084750122837
O           14.48294368877226        1.46635102529314       -0.88228126338572
C           15.88906964670107       -0.36983076347324       -0.46019225914124
C           16.94623526555971        0.03540361351850       -1.47702322788055
C           18.29229235235606       -0.63202061298208       -1.23649230213866
N           19.32347755699620       -0.15458326174377       -2.14004830462768
C           20.36072057125128        0.65081796093158       -1.69203695387746
O           20.51246411106338        0.85284086321490       -0.49773579571891
O           21.15686476154685        1.17617650493981       -2.68282936741537
C           22.25229951950048        2.01829238885114       -2.22099213256500
C           21.70628231523288        3.23342296562162       -1.45989398542003
C           23.20831576852990        1.20608047078550       -1.33779970884060
C           23.01025989336193        2.50583525197651       -3.46584180050029
C           11.49888587429524       -0.79326025561647       -2.05065607022708
C           10.24170941488171       -0.60370945666614       -2.62392391649209
N            9.33439216731214        0.41150550503128       -2.38988385843483
C            8.24188250378472        0.28210687027225       -3.18699614126313
C            8.42937791942471       -0.88622789476733       -3.97011100319209
C            9.64581813548556       -1.42802359714079       -3.64480603388802
C           10.21346412165899       -2.69220849644650       -4.20506915763867
C           10.02676950445909       -3.89049190799884       -3.27324074277752
C           10.61499722168318       -5.17400141510734       -3.83685300097538
C           12.15584656294314        1.31933021962748        1.10970841658880
C           13.15793025352520        0.61284135700324        1.96683952306122
C           12.80753539712515       -0.85246419504747        2.22914470228728
C           13.83307655700495       -1.55593822106495        3.10269610026376
C           11.40516030921212        2.38724505873372        1.50696112485104
H            0.61047741005105        2.32956533039971       -2.97258689499133
H            1.19674513041587        2.22060645295197       -4.62955691574441
H            1.32218471395664        3.73789078013548       -3.75414260802126
H            2.83606323308229        1.16380618979985       -3.02133907853259
H            2.95541727120122        2.66409641393472       -2.14740770649344
H            3.86742096323951        3.78959943499819       -4.22221334184581
H            3.75372205037453        2.27893207753124       -5.08039325921031
H            5.67639827744882        0.46471179912344       -4.67632707925595
H            4.72341225967566        4.58477144007561       -2.23389905613703
H            5.75182209396299        5.72881503150658       -0.51834245684482
H            8.27460605061483        2.90986955621816       -1.16711576977880
H            9.80193872871170        4.98929482389705        2.16115366031354
H            7.71691241045202        6.55006851205236        2.64175612054812
H            6.28952186037781        6.35336266764158        1.66406118146540
H            7.37196769515679        7.71575095124860       -0.17080800802320
H            8.79170883182263        7.90988139385414        0.81701417734410
H            5.98803922536278        8.92469797772425        1.56799993030947
H            7.31506646768462        9.93408489463775        1.00128582860912
H            7.42257488673698        9.12442133266069        2.56139046970872
H           15.76542244664772       -1.45701855760126       -0.45640156556982
H           16.21377822234170       -0.09833739015571        0.54845565880355
H           17.07075468057734        1.12424394548551       -1.45949215302784
H           16.59383356335456       -0.19516782021680       -2.48884358400602
H           18.20652453572163       -1.72081849049164       -1.32806539099863
H           18.62874871487538       -0.44221326521851       -0.21122455857595
H           19.11614045022811       -0.21610055012587       -3.13444523264170
H           21.16482425364193        2.91679096158101       -0.57106021648464
H           21.01878741055399        3.79742082579405       -2.08755319612108
H           22.51222000544047        3.89686143563225       -1.14962333721066
H           22.69587475993222        0.84970444204213       -0.44674227652217
H           24.06005150778586        1.80771753693043       -1.02398621883918
H           23.58089121145503        0.33847128966100       -1.87934216188305
H           22.34594379259627        3.07063704940188       -4.11739047008907
H           23.39281014087162        1.65899482093803       -4.03264968515392
H           23.84886924399318        3.14460731809208       -3.19226715122107
H           12.05671988240832       -1.61543255898677       -2.46317908876793
H            9.51289731479855        1.16144928398759       -1.73124399924260
H            7.73597591717123       -1.27760405121968       -4.69371314135313
H           11.27699199560327       -2.54882672727871       -4.42489881512810
H            9.74469825463667       -2.89965237764974       -5.17357365800713
H            8.95660933643931       -4.02184565849742       -3.06603699470255
H           10.47707108906633       -3.66366489239592       -2.29804976255063
H           10.15324705677649       -5.43360707849085       -4.79089064663280
H           10.47378078322195       -6.02062565663839       -3.16179700339978
H           11.68664803105369       -5.07090872055246       -4.01506118030734
H           13.24974136478264        1.14263291873837        2.92177212810638
H           14.14595823835736        0.68850953697463        1.50500560913352
H           12.70754224128836       -1.37569784958118        1.26970460180879
H           11.81237932535743       -0.90847279994365        2.68917429996786
H           14.82180058806459       -1.53708427068136        2.64144841619402
H           13.57311928241428       -2.60169206414263        3.27962878962587
H           13.92226222487460       -1.06989343591271        4.07558875742576
H           11.45482689375621        2.89314840564771        2.45588114321626
