97
 energy: -17.736392325485 gnorm: 0.000868947664 xtb: 6.5.0 (97a52f5)
C            2.15966557016396       -0.58162718256304        2.61172550713421
C            3.65709162249873       -0.48490703021966        2.36761751373427
C            4.06947807748417        0.83939450120148        1.72295807183258
C            5.54257659810035        0.93547650132681        1.48610752613819
C            6.20417157203321        0.55578503267500        0.35853082964424
C            7.58714802038874        0.76981672117594        0.60759825509189
N            7.76631301785648        1.24254403946501        1.85279121344281
C            6.55033298684859        1.35726286732561        2.41887936670677
C            6.28908818288232        1.73681209208123        3.77255131991479
C            7.21243068855446        2.12292994463672        4.70090660827316
C            8.58771137480871        2.42533361073752        4.42839348676584
N            9.05489080604946        3.00120454050986        3.26839698977576
C           10.42545561335708        2.96500450064505        3.25597474305993
C           10.84549018356696        2.42923870653410        4.48651222108140
C            9.72004095789690        2.12230007354207        5.22843732122061
C            9.70119557497045        1.52134505421537        6.59715312675594
C            9.57633621904360        2.56807083180879        7.70506944124956
C            9.53618547033895        1.95330960426172        9.09499119752004
C           11.19223891251750        3.15092812752836        2.03472799249090
N           12.10730737542344        2.27028025391761        1.59531829658022
C           12.27538218105249        2.51385139648418        0.27766217938207
C           12.90964669184793        1.56019334529364       -0.66268573821975
O           14.28209205454874        1.60882717788587       -0.76633961684201
C           14.93512650440389        0.86136113828676       -1.72620315567729
O           14.43203267028298        0.19653861740878       -2.59950934887505
C           16.43769361981673        0.93887798532251       -1.64750769462546
N           16.88227601427960        1.17842559773583       -0.29766388912562
C           18.22645144172500        1.19877091894983        0.03659462732801
O           19.07105031238622        0.87795194005082       -0.78323474381819
O           18.49081426857109        1.60121316900606        1.32327766808628
C           19.90084081303511        1.64305688897643        1.68446031083747
C           20.51913740860271        0.24382267922358        1.57533101828311
C           20.64748368967270        2.64073526173071        0.78990237755620
C           19.98390414160921        2.11695295281100        3.14346504367335
C           12.09130973221446        0.69002194410183       -1.40174223385196
C           10.72872774987764        0.47951734420820       -1.19934003790670
N            9.95199329882425        0.88380315652097       -0.11814030272218
C            8.65934020619366        0.50263682107418       -0.30656980810379
C            8.59204690777492       -0.18035778246896       -1.54983526038292
C            9.84841843196576       -0.22322892868521       -2.08977994873943
C           10.21396601572729       -0.78559747189841       -3.42463084203143
C           10.36602489531142        0.29403930890165       -4.49717312574173
C           10.75795018322895       -0.27060173846140       -5.85281077997087
C           11.45521667711228        3.61929218015399       -0.13127850515844
C           11.27431193726618        4.13583896066081       -1.52094837973373
C            9.92277912135801        3.75520640154520       -2.12832967704179
C            9.75623169745057        4.24685485087249       -3.55636922801953
C           10.77570862139802        4.00755469521686        0.98051682591156
H            1.87988594849590       -1.53158526046791        3.07169663129664
H            1.60170694517156       -0.49130103415936        1.67835051239184
H            1.81578006582275        0.21684923406239        3.27115610706779
H            3.99228805314242       -1.31410765623899        1.73106705215308
H            4.20442640065910       -0.61402734253758        3.31026749902001
H            3.74421616658747        1.67892482608047        2.34676738354453
H            3.54359483514133        0.96703198558985        0.77021203620988
H            5.76440538820196        0.16462031108543       -0.54264461000293
H            5.27170220142772        1.61713189552430        4.10379159153621
H            6.90221690695966        2.17794831535602        5.73260398400558
H            8.46682242601870        3.19004584240393        2.45095423388789
H           11.86507420403916        2.24403031532069        4.77736096778043
H           10.61185585007703        0.92993455235751        6.74488851477402
H            8.87523871715383        0.80468330328719        6.66588807988788
H            8.67607197359266        3.17183187579819        7.53152674619102
H           10.41143253419235        3.27632527054683        7.62651913558382
H            8.68768449635706        1.27545367640442        9.20154998374997
H            9.45190970881379        2.71132411101966        9.87650208373174
H           10.43859631608726        1.37326113171894        9.29535162796321
H           16.80687673032566        1.73745582170691       -2.29676531384247
H           16.87784236202873        0.00350894019803       -2.00173959378036
H           16.17671961098138        1.56810915307499        0.33021765996067
H           20.47296419219888       -0.11619133030271        0.54982038106404
H           19.97658349198600       -0.46119297239263        2.20242908780089
H           21.56236948342908        0.25022175872324        1.88803361113529
H           20.60692913451936        2.32573022285071       -0.25064120025859
H           21.69367247061633        2.72344784694132        1.08094344792157
H           20.19166738313710        3.62685911999472        0.85909863816124
H           19.44658270484172        1.43120551373448        3.79612483503905
H           19.53060679371495        3.10100117015983        3.24882150541397
H           21.01767477914052        2.17583807088730        3.48115139358466
H           12.55695327714188        0.13927897562468       -2.19298441104562
H           10.26421682869355        1.43741164068011        0.68138306800995
H            7.70371268287647       -0.59607834239759       -1.99213579655170
H            9.45386003252869       -1.51215103298107       -3.73265569680336
H           11.14348339846020       -1.35839037020012       -3.33540724692261
H           11.11005251429702        1.02973829355364       -4.16505506377030
H            9.42699498658522        0.85729134558950       -4.57627007940502
H           11.70632541364309       -0.80729890867155       -5.79566139497448
H           10.86763564291349        0.51201097606705       -6.60635726496600
H           10.00942305587035       -0.97588905425408       -6.21744283721395
H           12.08500778722488        3.75745070400116       -2.15323149329102
H           11.38810759587371        5.22534019902615       -1.51771433944803
H            9.11756019830443        4.14818716520327       -1.49423297620563
H            9.80424837900192        2.66562971478738       -2.08918623408856
H            9.83582639340306        5.33379798136290       -3.61082876750769
H            8.78788106248942        3.96627742136350       -3.97591746683468
H           10.52869729232492        3.83455609443608       -4.20762018891563
H           10.00810907118241        4.76092692633409        1.03021541403798
