91
 energy: -17.269442566912 gnorm: 0.000976159923 xtb: 6.5.0 (97a52f5)
C            1.89766484530040        2.62474802118729        4.15054938555541
C            3.22384307621268        2.09849136467384        3.62620345451006
C            4.30892646647299        3.17498271256578        3.56810399057789
C            5.61742112232020        2.65305564291642        3.06597182960160
C            6.07988141908920        2.73057113124321        1.78451285784634
C            7.32511138880704        2.04712241315455        1.76801599920412
N            7.60382276904092        1.56923461400588        2.98913055698742
C            6.59477449770031        1.89855441479753        3.80463456045129
C            6.47474180834459        1.54760969806714        5.19082475185062
C            7.25427841655281        0.74874804989097        5.97952754305552
C            8.45320476304840        0.03033684166525        5.67223524742432
N            9.20377735814379        0.12676337385691        4.52823819664747
C           10.24516860879158       -0.75247185916008        4.54479766818478
C           10.19011223727303       -1.42706165459854        5.77330770816374
C            9.09662327937610       -0.94356193727618        6.47867670439898
C            8.69511710775594       -1.36449297489574        7.85611783791819
C            9.20571839199465       -0.41273357716650        8.93943105885085
C            8.79592103710720       -0.83817972002049       10.34021163942958
C           11.10933500210110       -0.94281342653655        3.39812730185433
N           11.20365063772434       -0.02961045000992        2.42502471292165
C           11.92222734395059       -0.58003971550807        1.43034361209544
C           12.29064956443971        0.07960067015995        0.16981274110607
O           13.58664506727377        0.00132812259215       -0.29351551389584
C           14.58135608199386       -0.04167246138190        0.73871644864898
C           15.96861746131572        0.10329504418866        0.19999745820985
C           16.80311827100742       -0.99546045335143        0.07520879402242
C           18.06963207057017       -0.85555428636436       -0.44774733433229
C           18.52509229543920        0.38517529941064       -0.86628238227954
C           19.90314202375939        0.52926795989783       -1.42264154283723
O           20.84110256031505        0.03298245675183       -0.82278336338329
O           20.02465999592831        1.21543561088469       -2.59832757457842
C           17.68701196737089        1.48384391300193       -0.74785214484876
C           16.42053027549688        1.34053115783090       -0.22534672733428
C           11.38587935153254        0.78976789904733       -0.67158819130107
C           10.09720393429610        1.23756872424018       -0.42248288173649
N            9.40453016841621        1.20668218639981        0.77840490679050
C            8.21828831306760        1.85713255522836        0.66687960930961
C            8.10467902416331        2.30203413144825       -0.67923262205823
C            9.24234160540228        1.94105141249320       -1.34879605860691
C            9.52090591204131        2.17838088732498       -2.79777973435657
C            9.33676282191647        0.92164540158510       -3.65043908064687
C            9.64494321417746        1.15488008476176       -5.12067371507121
C           12.30522989715596       -1.91408330520256        1.78986255174874
C           12.92683842625379       -2.93991372592341        0.89610352167431
C           11.89489483464642       -3.89185854372786        0.28983976049901
C           12.51660433833156       -4.91695316201695       -0.64475624853263
C           11.79634420641589       -2.12859125839278        3.03861564773648
H            1.13323665414704        1.84564035742801        4.18632204756472
H            1.51694610449369        3.43065278680016        3.52102286408025
H            2.00456904127124        3.02717071604469        5.15918329255772
H            3.09277412675703        1.66618639570731        2.62564486896409
H            3.57343029391209        1.26536498491940        4.24961006765821
H            4.44946082561857        3.62124656076075        4.55859055615093
H            3.97909552373077        3.99880814471981        2.92526388354642
H            5.59448410266015        3.20773436041587        0.95065168149374
H            5.60258247381629        1.96515467910279        5.66715234281014
H            6.91064209186116        0.60717538648267        6.99158224232491
H            8.89897957614736        0.65363545396390        3.71807280371929
H           10.87311591703217       -2.18896154232578        6.10671285443575
H            9.06774881637953       -2.37734178874373        8.04662685114419
H            7.60376089092863       -1.44379754796606        7.90957556653455
H            8.84220949812482        0.60158089644183        8.72982876291534
H           10.29886336836569       -0.34143554660119        8.86875148602887
H            7.70988185049135       -0.88009853576624       10.43719576113777
H            9.16747568536506       -0.15081283640344       11.10302137308823
H            9.17930224689441       -1.83170183744349       10.57851395114119
H           14.49014584345881       -0.97439759686944        1.30001705197757
H           14.36634881177473        0.77223424077641        1.43965866130613
H           16.45172112489528       -1.96288450449747        0.39051298206852
H           18.72252210922012       -1.70702648599299       -0.53557199543427
H           19.14647523060031        1.49172594963479       -2.93058441615965
H           18.04051087549539        2.45253884133966       -1.05647296646037
H           15.76675767575333        2.19215023808325       -0.14472441312366
H           11.79732182818897        1.05255098598492       -1.62937714668232
H            9.79396295320262        0.80867005186967        1.62775325522159
H            7.26964380891525        2.83666208175798       -1.09683075129238
H           10.54021201292358        2.56365703430796       -2.91383476977398
H            8.86661503762532        2.97678542849885       -3.16638369068344
H            8.30983359122910        0.55333188021745       -3.52997705863290
H            9.97257437363053        0.11977704748234       -3.25352977051910
H            8.99833318874037        1.92665477018365       -5.54141370274248
H            9.51000886484387        0.24979256075681       -5.71639766424096
H           10.67514810529160        1.48729401548969       -5.25863282472297
H           13.67670560594773       -3.50662005024673        1.45883760636519
H           13.47199832421536       -2.44011306736056        0.08844668154595
H           11.13488231018119       -3.30469805728259       -0.24244664588869
H           11.34912526553625       -4.39574076355823        1.09818991889322
H           13.03557294285912       -4.43109251102251       -1.47246149600360
H           11.76907915565588       -5.58748442327368       -1.07367336626612
H           13.24953381976740       -5.53332562250051       -0.12173828920175
H           11.82703279228584       -3.04826241508397        3.59742861175819
