74
 energy: -13.833802704069 gnorm: 0.000807719622 xtb: 6.5.0 (97a52f5)
C            6.04281000666686        5.36633468282903        0.03464029799791
C            6.81545632517009        4.06375175770106        0.16972148272732
C            8.30209665924267        4.21959577152971       -0.16048386792734
C            9.09973558784271        2.95678095851563       -0.03597157713382
C            8.64468546164247        1.71122325600451        0.27805098345726
C            9.77953446361736        0.85035400482500        0.25853479028296
N           10.88076889442121        1.54262900093069       -0.05556745181149
C           10.52330144695511        2.82528018159257       -0.24765760653284
C           11.38546547721779        3.90094357853936       -0.60424288759312
C           12.73794393058787        3.93318277099988       -0.86263635018034
C           13.70425372411937        2.89431850621769       -0.86924297887158
N           13.49323855658865        1.56623046422235       -0.60442949168344
C           14.65190551186805        0.85261454076298       -0.68139226849808
C           15.67328973350355        1.76775873538106       -1.02372919441200
C           15.10297287270140        3.01733424897826       -1.14857222368423
C           15.84122326328256        4.28318780257625       -1.44771982636473
C           16.18841348960662        5.08750768656410       -0.18946308612210
C           17.13899955301454        4.34931795430671        0.73987521396158
C           14.70649989203022       -0.55323104673637       -0.41717684693267
N           13.60596967700766       -1.24752753599382       -0.10533259234329
C           13.96763900447861       -2.52620449084222        0.10505825420152
C           13.10107209441837       -3.60531378893445        0.43983117542837
C           11.74457696141152       -3.64044946443986        0.67499191666293
C           10.77821605847226       -2.60171333385854        0.67985208666532
N           10.99150941812025       -1.27001660255523        0.43582582888581
C            9.83051326382521       -0.55908479555752        0.50411692183056
C            8.80479625447893       -1.48025974900764        0.81691158298384
C            9.37549262633947       -2.73028488161639        0.93527606636259
C            8.63523906073331       -4.00192693922365        1.20123424560942
C            8.29465235475944       -4.76871618930932       -0.07761882550792
C            7.54142572033563       -6.06147981214971        0.19177213134821
C           15.39657236646956       -2.64950420078313       -0.07754931294185
C           16.20518919416136       -3.90536030792566        0.04342204840376
C           17.69994948678130       -3.66896246599929        0.27533989360595
C           18.47733965027711       -4.96178679526187        0.46568932971132
C           15.84555441297509       -1.40841950872455       -0.41600726702045
H            4.98441052659274        5.24225074301667        0.27443557805226
H            6.10542168906371        5.75855540524724       -0.98204857283113
H            6.44263750287497        6.13323526531760        0.70049955991943
H            6.37820607576834        3.29705912293343       -0.48319338072107
H            6.71108369727859        3.66683552234921        1.18804125481639
H            8.74106794577317        4.98246684913833        0.49256131477021
H            8.41051033774217        4.60819129036571       -1.17948774747071
H            7.63064226124147        1.42368711198904        0.49544327614528
H           10.87770034632361        4.84907713714278       -0.68345886158461
H           13.14266391067457        4.90250738212352       -1.10590415137310
H           12.58188431911381        1.20189814415951       -0.35356270564860
H           16.71502264659489        1.53075741535890       -1.15234634668919
H           15.24565271934924        4.88866117606921       -2.14121204232898
H           16.76025946365501        4.03788912287441       -1.99166254900027
H           15.26241373300483        5.33403979949742        0.34575410027761
H           16.62359053103768        6.05556748009228       -0.47398169990867
H           16.70722910065995        3.40555769471006        1.07733313436084
H           17.38226530146956        4.93466393335878        1.62905923919218
H           18.07712575267536        4.11153215135827        0.23594809762845
H           13.60541114436881       -4.55541573403536        0.51321888341049
H           11.33600682224354       -4.61277987121614        0.89957907520983
H           11.90448608850157       -0.90335585895808        0.19496109958054
H            7.76019556987928       -1.24750523759903        0.92951942474805
H            7.71611177341333       -3.77511487713374        1.75324287412152
H            9.22547584848560       -4.63487296749735        1.87295402246259
H            9.21949990878131       -4.97678027353712       -0.63160069852627
H            7.70893355742755       -4.11879942995809       -0.74115503796595
H            8.12632285505130       -6.73505329554407        0.82060295019149
H            7.30210398243818       -6.59677786998374       -0.72980486877084
H            6.60201044142231       -5.86923119333879        0.71319814817706
H           16.06124701804602       -4.51136796274062       -0.85827485422557
H           15.80807106591658       -4.50732231278783        0.86820049335635
H           17.82964554870910       -3.01744330255275        1.14943942432503
H           18.11437055802811       -3.10197266623110       -0.56809409095282
H           18.10479860830998       -5.52352977310663        1.32397982765536
H           19.54200289110836       -4.77998256377717        0.62906560818715
H           18.38496926580487       -5.60993055622822       -0.40742793004515
H           16.85923673600198       -1.11863099444110       -0.63166244305724
