72
 energy: -13.541217839410 gnorm: 0.000848753505 xtb: 6.5.0 (97a52f5)
C            7.31090165879311       -2.04038567982938       -0.81695969044620
C            7.97310791087401       -2.73282353265278        0.36369737224450
C            7.96470275404161       -1.87848740278427        1.63704132272559
C            8.74433201171579       -0.60905543663501        1.49823301567998
C            8.23318499441372        0.62286790518836        1.22358528968984
C            9.34603213681556        1.50695047422970        1.12796336420842
N           10.48738073837986        0.83786815386937        1.33028914373239
C           10.17926377779529       -0.45215027103788        1.55618920324084
C           11.09636753541360       -1.51071369448951        1.81006489906705
C           12.47068203646465       -1.51994486590773        1.89384794279595
C           13.41329230458351       -0.46837074305148        1.75956128588653
N           13.15153512056300        0.85054931317992        1.49611025704848
C           14.29931455960858        1.58164297013536        1.42382107394224
C           15.36892411256588        0.68661218745132        1.65287708272971
C           14.83734482947964       -0.56723510089009        1.86776492516065
C           15.62390772084032       -1.81562714730618        2.10382057500895
C           15.85335410219625       -2.62044666762926        0.82932115714635
O           16.59463106465581       -3.80699693411846        1.06764577732063
C           14.29735689112995        2.98667164621676        1.15072230694903
N           13.15591055800964        3.65454467110613        0.94846655320625
C           13.46516242706640        4.94267893183948        0.71473783541493
C           12.54963336431516        5.99864636735399        0.44465216564446
C           11.17571658135655        6.00683393557250        0.35114680427451
C           10.23242638283573        4.95673214421333        0.49248036508831
N           10.49358590693693        3.63991135527599        0.76782941758569
C            9.34511309547952        2.91043153209705        0.84767912944388
C            8.27609027150756        3.80418833373820        0.60964581223169
C            8.80860276708839        5.05594950925228        0.38334257366154
C            8.02238980107953        6.30500493551294        0.14382494353140
C            7.81192693096821        7.12667089634901        1.41651232587145
C            7.01319952844799        8.39717762310789        1.17365927241201
C           14.89982036644278        5.10324487574969        0.77425567377692
C           15.65271225371648        6.38275299786980        0.56787043180218
C           17.17163374093577        6.25389012310637        0.70778939473710
C           17.89593065476457        7.57339115340182        0.49102517646290
C           15.41029952974663        3.86980197784392        1.04759564737346
H            7.31554234514060       -2.66304399421905       -1.71426270467652
H            7.82069937220685       -1.10742294162409       -1.06309192283347
H            6.27196218128680       -1.79014153569666       -0.59539291163231
H            9.00944148280651       -2.98995951504030        0.10936077271693
H            7.47754289880818       -3.69424666641745        0.55694533113331
H            8.35691279435882       -2.44826719842574        2.48770816963509
H            6.93121195949194       -1.63163922331228        1.90521749620987
H            7.19528040031377        0.87594903601589        1.09274019703900
H           10.61905891655856       -2.46588030885588        1.95884664453914
H           12.91842906996994       -2.47997303299744        2.09479999090747
H           12.20919605921275        1.20138519019197        1.37117670070028
H           16.41503062406110        0.93890667883627        1.65423598664975
H           15.11772806523109       -2.43967854230532        2.84707568619691
H           16.59044277634726       -1.56038139217933        2.55085631258553
H           16.38663821854877       -2.00612771709757        0.09210092569941
H           14.88951660124631       -2.88705771527341        0.37712015646351
H           16.73593401421851       -4.30711360079586        0.23676401960346
H           13.02850836902562        6.95211613392692        0.28877888149298
H           10.72936467553376        6.96430389675402        0.13539812138931
H           11.43544670003697        3.29180084411651        0.90133920164557
H            7.22987179887433        3.55240668097186        0.61142343011888
H            7.05195036699557        6.04209255154215       -0.29233269426222
H            8.52462187858020        6.91262842525303       -0.61702261014216
H            8.78843518860279        7.37050780970414        1.85498869619279
H            7.31299121491380        6.50199642180589        2.16913051736924
H            7.51495404863602        9.04685504449595        0.45437433671608
H            6.86802475613128        8.97201268616956        2.09092112988307
H            6.02563424650790        8.17025738069650        0.76821380118912
H           15.28422531543823        7.13002314718094        1.27964493949729
H           15.41150031325785        6.77937282154357       -0.42477306370187
H           17.53800864796426        5.50184102923908       -0.00305710466658
H           17.41014069529318        5.85136018055030        1.70085025544062
H           17.69807759970756        7.97306281104544       -0.50497186068265
H           18.97814644949731        7.46936381276391        0.59384583072131
H           17.56850948805763        8.32596269505837        1.21029127211651
H           16.44670004606505        3.60523156901747        1.16573624208510
