118
 energy: -25.309529433806 gnorm: 0.000845269973 xtb: 6.5.0 (97a52f5)
C            1.09978170042786        0.07916600852175        0.42201108081932
C            0.28154198628405        0.98380271834201       -0.14575284677382
C           -1.16640113108898        0.98203571673241       -0.06933721722512
C           -1.84584534611336        0.07043928348146        0.71441165349817
C           -3.22627703529130        0.10702857565012        0.75449653696567
C           -3.98047767015937       -0.84297045810762        1.55010596261819
C           -3.45120102620785       -1.72065343450190        2.42233686109118
C           -4.19290755148714       -2.70185693113313        3.18967800637855
C           -3.52445373695492       -3.46868519765781        4.14998811660862
C           -4.18559364063867       -4.42359127127669        4.88037836580541
C           -5.54501319885629       -4.66231696151186        4.68168654395979
N           -6.22682358924224       -5.67460523151463        5.42911554500263
C           -5.83029619577469       -5.96306664265163        6.77985256470151
C           -5.79039581022399       -7.27507968912048        7.24579529762639
C           -5.40666053342927       -7.55032100355535        8.53915729458808
C           -5.05700314082806       -6.52123211211415        9.39177610961552
C           -5.09291314961263       -5.21438599068754        8.94545540068731
C           -5.47587051934040       -4.93676986715303        7.65234606363829
C           -7.27737581081513       -6.44168184000882        4.81962561937416
C           -8.38907340271009       -6.83856909578959        5.55893155072225
C           -9.38911163427161       -7.58608213150921        4.97836703230834
C           -9.29775646578178       -7.95198969002714        3.64940852780448
C           -8.20095690484754       -7.56747350483680        2.90287855596152
C           -7.19977760178290       -6.82000922029148        3.48130924054504
C           -6.21635337893649       -3.89916348801113        3.72590188499782
C           -5.55806551834245       -2.93976254692469        2.99656407521334
N           -3.90142973642944        1.01301180283805        0.04168274460293
C           -3.16737446023771        1.85896975184722       -0.68717789742926
C           -3.87787880699834        2.84599978552423       -1.47256383770266
C           -5.21254762925505        2.99339306457426       -1.44575045642601
C           -5.96597612802627        3.95388730231722       -2.22643406049378
C           -7.32657430580640        4.14652954640384       -1.96577204346093
C           -8.06387094751977        5.05084711595932       -2.68879130008596
C           -7.47890689444438        5.79694643549640       -3.71203745236970
N           -8.24656403062339        6.73721225750503       -4.47104696794673
C           -9.28515537167255        7.50160833531613       -3.83839613681808
C          -10.46308996766173        7.80293271186779       -4.51785902771050
C          -11.45215621185727        8.54646905172860       -3.91386454133171
C          -11.28387575905228        9.00315955606972       -2.62099250821628
C          -10.12150290432004        8.71260462762731       -1.93348160811675
C           -9.13124227421228        7.96901774310610       -2.53532647612723
C           -7.97043467340305        6.92994839787602       -5.86788249958934
C           -8.03377031078931        8.19870443618623       -6.43913542876419
C           -7.77267586636948        8.38025896054743       -7.77888429813525
C           -7.44410748185270        7.29893036099773       -8.57326473970216
C           -7.37776886794316        6.03408358562328       -8.02195178665373
C           -7.63784940079920        5.85018888113412       -6.68247669437722
C           -6.12453172425920        5.60036771862440       -3.98161310341396
C           -5.38323117699874        4.70258472081073       -3.25495781040620
N           -1.83386661609478        1.89303992636194       -0.78116804003187
C            2.54753677536730        0.09644931681185        0.35030384888965
C            3.27638854129565       -0.96776424431524        0.89193011789295
C            4.64783601745992       -0.98250321529549        0.84813324774738
C            5.35665620254282        0.06788168476740        0.26569196365783
N            6.78716833244170        0.05731482494407        0.22968430882818
C            7.49724628108159       -1.18491735383976        0.10012923574982
C            8.67779723625530       -1.40656538918310        0.80511960331601
C            9.35753825442248       -2.59749029302260        0.68047980993778
C            8.87236859679085       -3.58820596471008       -0.15105103737729
C            7.70386948584261       -3.38288388694332       -0.85872880878212
C            7.02205767395502       -2.19305486338779       -0.73524445546627
C            7.52181754351893        1.28636740838379        0.34501322567668
C            8.68627741577538        1.49110234096474       -0.39112304691684
C            9.39246376014383        2.66747938802860       -0.27556007516446
C            8.95013398980476        3.66029966196378        0.57725133193152
C            7.79797751117574        3.47172750290312        1.31558970691654
C            7.09018777666130        2.29626738406114        1.20168519266872
C            4.63436431238613        1.13250851365300       -0.27346664078585
C            3.26214791083516        1.14801764653641       -0.23409631241045
H            0.66616673440775       -0.73753881049207        0.96874743599831
H            0.71035473590921        1.77981666099797       -0.72412622675038
H           -1.30710825349780       -0.66350110592820        1.27969802160190
H           -5.04580269530887       -0.81665444118397        1.41945513535977
H           -2.38930318942332       -1.70747622599620        2.58468852988957
H           -2.47312264216807       -3.30207354637308        4.31173549442744
H           -3.65570690551843       -5.01475818640992        5.60656097092625
H           -6.05549850669219       -8.07306120497481        6.57458324554396
H           -5.37771327144411       -8.57020907562791        8.88650493545315
H           -4.75668081260862       -6.73761456174574       10.40400440813403
H           -4.82153470208510       -4.41093573535699        9.61060804940680
H           -5.51402311787379       -3.92027327744214        7.30157554581859
H           -8.45682694006390       -6.54677452847165        6.59233459363758
H          -10.24465130999738       -7.88576646732484        5.56135411280445
H          -10.08087228769570       -8.53732678797534        3.19583692030306
H           -8.12778265139650       -7.85479836047810        1.86665916808985
H           -6.33714878971585       -6.52893363126802        2.90788490080980
H           -7.26758675156141       -4.06991775565694        3.57318802633566
H           -6.09843418620509       -2.37357867458098        2.25933947002550
H           -3.28057259471608        3.49018841761147       -2.08910032811719
H           -5.77095357306728        2.35142538805500       -0.78896917261467
H           -7.79327715459225        3.57785642267482       -1.17966390567649
H           -9.11113168992100        5.18633756629725       -2.48295097772281
H          -10.59117954448858        7.43925032803366       -5.52232449953942
H          -12.35890032387431        8.77295302098199       -4.45064972302454
H          -12.05812233108913        9.58608103139655       -2.14948530693924
H           -9.98859280389855        9.07037694026449       -0.92553386400628
H           -8.21895585831988        7.74945301068628       -2.00880417672138
H           -8.28288306855405        9.03815649022656       -5.81398284665901
H           -7.82363371887390        9.36744218266734       -8.20845985898183
H           -7.24044550348909        7.44185022188761       -9.62193999075773
H           -7.12335333575627        5.18970419746236       -8.64155887316594
H           -7.59684925795274        4.86600817699862       -6.24953096208479
H           -5.66403927537162        6.17610941026371       -4.76522757135745
H           -4.34295851869330        4.56537438069457       -3.48998612020713
H            2.74498414730237       -1.78547652291704        1.34826461563899
H            5.19577453400710       -1.80240429444424        1.27825219657764
H            9.04647432584574       -0.63403559358053        1.45698784051389
H           10.26901019968023       -2.75725270999225        1.23301537776984
H            9.40515415403770       -4.52005242041039       -0.24798158297674
H            7.32580653996883       -4.15486903168106       -1.50891877570372
H            6.11643907568925       -2.02372021968350       -1.29102525485243
H            9.02202847813907        0.71678640311310       -1.05849894443109
H           10.29147160287475        2.81411149298072       -0.85165864473724
H            9.50364322722269        4.58070593044378        0.66706411812911
H            7.45355261264834        4.24501712269612        1.98275528433931
H            6.19841338631329        2.13892651593700        1.78283752044775
H            5.17286067799148        1.94233404250032       -0.73367882840377
H            2.73332936878224        1.98551528210152       -0.65221255468249
