17
 energy: -2.404103046292 gnorm: 0.000681070271 xtb: 6.5.0 (97a52f5)
C            0.98387837753692        0.10884105142925        0.01998936209095
C            2.50420552011727        0.08330735775541        0.05073177866951
C            3.05919315682123       -0.82989158678231        1.14553386723604
C            4.58830650507262       -0.86075047424800        1.18246446356771
C            5.13282771733556       -1.77038759827379        2.27290505348813
H            0.59850188698943        0.76403726504787       -0.76536904317700
H            0.57485497745766        0.46024258237390        0.96987341607089
H            0.57490556732321       -0.88866279308470       -0.15553881663435
H            2.89687989180499        1.09936107336426        0.19169296817131
H            2.89693513596761       -0.23760613401370       -0.92354346709656
H            2.67309873971802       -1.84769265302122        1.00752426007058
H            2.67314286584907       -0.51148056780482        2.12206828695840
H            4.96901407802922        0.16072759580309        1.31689270444679
H            4.96888238211480       -1.17625187680131        0.20162177409212
H            4.79390048367750       -1.45051408211274        3.26078282976751
H            6.22556807742381       -1.78474835990799        2.28995114898985
H            4.79371463676110       -2.79956079972320        2.13551941328811
