98
 energy: -18.237513150635 gnorm: 0.000528892993 xtb: 6.5.0 (97a52f5)
C            0.15911934628680       -5.12645525488146       -0.01455262960157
C            1.54647505456574       -5.32609465311843        0.57545901281773
C            2.58774659678835       -5.69502708987455       -0.48123222808454
C            3.99895563967248       -5.87254332717004        0.09197195294023
C            4.97761503009567       -6.22480356460446       -0.87069538355999
C            5.77575882944676       -6.55469962737269       -1.73021074575501
C            6.69705568233217       -6.91412671437290       -2.73490581593382
C            7.64389499924170       -5.98746006215850       -3.09927042370785
C            8.60746649899363       -6.29733905622494       -4.04617171676561
C            8.62903749374319       -7.54516694958829       -4.59906519138615
C            7.67652029980585       -8.50169005065748       -4.23098360744935
C            7.77707005016848       -9.81457923375858       -4.77486254632867
C            6.96973216394559      -10.85416794499859       -4.44945248432763
C            7.18960207374923      -12.17922437101450       -5.12777079442728
C            6.62098636106425      -12.22414582191500       -6.55297381097182
C            5.09073534705441      -12.12840839591710       -6.61960891772413
C            4.38573492072493      -13.41464418977818       -6.21477761512315
C            5.88363580316261      -10.64395450462675       -3.55675976278154
C            4.98104989517670      -11.60973865968091       -3.13160679138675
C            3.82822050113579      -11.32603417825468       -2.41840161670096
C            2.91799114260799      -12.42416207236451       -2.03216678868621
C            3.44725163994108      -13.68736001360432       -1.68871004932075
C            2.66252206759247      -14.73991971550153       -1.37698165303680
B            1.16837402483648      -14.59506273410654       -1.45497120199401
C            0.63693075322982      -13.20218933217016       -1.63396797234387
C            1.54984309640840      -12.21274914821772       -1.97501771830056
C           -0.74169890662306      -12.99824110984841       -1.35881859340327
C           -1.31263348407183      -11.60829281485124       -1.34865175477233
C           -0.91754918784406      -10.81653779143621       -0.10055632191699
C           -1.44930715728362       -9.38344826556279       -0.09968485327648
C           -1.04476824317167       -8.61008149426270        1.14561211605532
C           -1.52143022024370      -14.05166106528255       -1.00754649184577
C           -1.08590062764003      -15.40868361242182       -0.98452247961108
C           -2.00646149351161      -16.41853917474639       -0.68390849138234
C           -1.63920829847171      -17.73224186010895       -0.75355619203715
C           -0.35270596153655      -18.06476345623783       -1.15115046923303
C            0.56513456989588      -17.08329893231072       -1.43788323967476
C            1.83799855572460      -17.46251114811972       -1.91041536041954
C            2.93668561349417      -17.76804435365098       -2.33908117586203
C            4.23193909685390      -18.05543823515587       -2.83667120838312
C            4.75559948969961      -17.04489622757941       -3.86472653900436
C            6.16807886083040      -17.36637216158778       -4.35427906434447
C            6.67407464077096      -16.37611099541006       -5.39101358525119
N            0.20252754198899      -15.75897882195977       -1.30030593516380
C            3.50867399556522       -9.98746804769575       -2.10914541705432
C            4.32011586483187       -8.96048800435379       -2.43645809810469
B            5.64176373157833       -9.23186816926602       -3.09974807113819
N            6.69514739856371       -8.15793145757361       -3.33527866927538
H           -0.58127422973894       -4.87959497884442        0.74982556338097
H           -0.18437068145970       -6.02653461787994       -0.52778495767939
H            0.15499607851204       -4.31833231311804       -0.74850373844179
H            1.52150298836545       -6.10623649904042        1.34794734313555
H            1.86816514106439       -4.41690900773900        1.10072386492239
H            2.60667381190335       -4.92798053490301       -1.26503439509987
H            2.28149341796536       -6.61529603680195       -0.99330491083027
H            3.97773178460996       -6.63725642228218        0.87966297958572
H            4.30675144987766       -4.94794607155671        0.59780600964895
H            7.63536077507477       -5.01649060772556       -2.63301739204147
H            9.34471324767478       -5.56316000334808       -4.32844444224033
H            9.38924237875318       -7.80813058288220       -5.31502975096637
H            8.57020564861598       -9.99480653228425       -5.47968911600496
H            6.76667957536335      -12.98767374508168       -4.52576994826697
H            8.26768173470102      -12.38346235304260       -5.14714739582088
H            6.94362827522378      -13.14190721664653       -7.06098076000961
H            7.06802883390490      -11.40331415642999       -7.12894003833752
H            4.78071287749931      -11.85250796284257       -7.63769479079107
H            4.75412419042938      -11.29652982268501       -5.98746929489799
H            4.65778050108751      -14.23756508884933       -6.87829120508241
H            3.29842021999188      -13.31402261622368       -6.24892785756479
H            4.65036835132818      -13.72155096774851       -5.20299454299594
H            5.16324671384518      -12.63417364029901       -3.39282873517128
H            4.51727387040291      -13.79977432689784       -1.64777369667546
H            3.06965040974730      -15.67609928624398       -1.05498151593112
H            1.17694921912484      -11.23224142466552       -2.20594281725423
H           -2.40505619861250      -11.65852454037284       -1.42393736600582
H           -0.99372336257127      -11.07474814184045       -2.25091660040737
H            0.17462887004753      -10.80203741159623       -0.00335408991215
H           -1.27155314167087      -11.34407946158811        0.79357604385086
H           -2.54309757930056       -9.40241486128622       -0.19572280878968
H           -1.09443410844931       -8.86389458007276       -0.99981681084683
H           -1.40797594712200       -9.10127507747167        2.05029733118789
H           -1.44110841320006       -7.59232207240290        1.14427177675875
H            0.04131459834761       -8.54036569591343        1.23167164850312
H           -2.55039879957453      -13.86013517078805       -0.75783263229535
H           -3.01299645823967      -16.14950260337954       -0.41178743028749
H           -2.35172031369047      -18.50884530696559       -0.52679609504130
H           -0.06627236739746      -19.09809949228291       -1.25209443518837
H            4.23493363713259      -19.06066853996127       -3.27820940076750
H            4.93368116404169      -18.11104133868027       -1.99388143680948
H            4.73461670935711      -16.03724742276298       -3.43202568982258
H            4.06764619410016      -17.00121076766021       -4.71781352422837
H            6.18625568313213      -18.38477024308271       -4.76481133991275
H            6.85104460789441      -17.39484635044785       -3.49465693975531
H            6.03116903822029      -16.36491042797277       -6.27307028810124
H            7.68681911679557      -16.61216575721625       -5.72567161506424
H            6.69020261777292      -15.36131037244288       -4.99073855532791
H            2.59402888630394       -9.78533397032300       -1.57902217637579
H            4.04709776639129       -7.94558979403970       -2.24054566708841
