126
 energy: -25.080458793233 gnorm: 0.000536290198 xtb: 6.5.0 (97a52f5)
C            1.43228022947968       -1.05061601225072       -0.38711570694574
C            2.84309277578479       -0.54423764856493       -0.13056038675011
C            3.15505737773897        0.74665267716450       -0.88922495712478
C            4.56599455024970        1.26861444376592       -0.62453212156511
C            4.94165089368893        2.52392182157599       -1.43292174131320
C            4.02936142383195        3.73902701790538       -1.11308229652480
C            2.91083579216186        3.94539291346564       -2.12290672993574
C            6.41772573169540        2.88231552216033       -1.23270466681127
N            6.83353693373238        3.97394054155763       -2.09893938774581
C            6.99972781260833        5.24630637640117       -1.52893671088285
O            6.84276351585276        5.43300789932719       -0.33361345841711
C            7.35483903909114        6.35363880432339       -2.42700700156736
C            7.53360903550563        7.62282655612142       -1.93249071796168
C            7.85629287291980        8.68195321829981       -2.77667583477001
C            7.99898094660039        8.47693601364798       -4.11904977046653
C            7.82592106094219        7.19420105430247       -4.67833615145756
C            7.96283712789786        6.95386207719848       -6.07950287676996
C            8.26140865524128        7.99802381520538       -6.96793503648309
C            8.50290569465303        8.92429092790324       -7.72962075438735
C            8.75852753194653        9.99661055611741       -8.60189745995282
C            8.18208454552192       11.24586435179504       -8.38178159700441
C            8.42096563688531       12.29268458054542       -9.23940903492129
C            9.24383013450335       12.13030923459628      -10.35259061137070
N            9.47752681112362       13.21672288680527      -11.25680237839607
C            9.54241382900256       14.56106534807036      -10.75505405682418
C           10.17926654940663       14.84002768288522       -9.54824497887214
C           10.23828093914496       16.12808707744734       -9.06657586104265
C            9.66264045113004       17.16143776976611       -9.77953302291629
C            9.02687060791443       16.90127043952581      -10.97768516889059
C            8.96660790284732       15.61416868185815      -11.46164336184482
C            9.61179378154437       12.97134786891722      -12.66142837058188
C            8.89301377035782       11.94958500034181      -13.27944868600890
C            9.01860349045018       11.71598117136340      -14.62745065013470
C            9.86638812944821       12.49537866889419      -15.41144015187490
C            9.98799429916863       12.24876544359786      -16.79000011818325
C           10.06508944958500       12.01294731954072      -17.98789284766690
C           10.11476217043236       11.72792910942600      -19.36085010798673
C           10.54426340135615       10.48920931156045      -19.78664772928223
C           10.58580772331819       10.16115257799663      -21.13582727603333
C           10.19520507044717       11.06170113778871      -22.09824479596275
C            9.75000767151511       12.34870387435067      -21.70840065348943
C            9.33965326011784       13.29794289966163      -22.67863805397131
C            8.91553795587166       14.54028087381280      -22.27363758870634
C            8.88065146777531       14.88089921233542      -20.92404591192913
C            9.26697639289776       13.98007536082092      -19.97337186657613
C            9.71070814523863       12.69141386921179      -20.33471581315321
C            9.36557881142862       12.94731270740719      -24.10573591962095
O            8.99971899003534       13.74530822456697      -24.95266307346461
N            9.82826832566768       11.66752961389930      -24.45160750158299
C            9.85118740502005       11.30699550284678      -25.85964345477288
C           10.84357804453533       12.12245366968640      -26.69761701342009
C           12.29828359341865       11.91642942274628      -26.22774911245804
C           12.63243482524232       12.62598752482208      -24.92584348511463
C           10.66999880914122       11.79290075447697      -28.19408934133129
C           11.34588271070960       12.78585676794766      -29.14040730686315
C           11.09756695761823       12.46276702321898      -30.61479716927945
C           11.76585022162528       13.45224566461963      -31.55644718691959
C           10.24049599468138       10.69987994673477      -23.52005972531420
O           10.63024225298519        9.59940907237572      -23.87538896348988
C           10.58276944714456       13.51938226331115      -14.79541478870252
C           10.45770277487042       13.75301024230036      -13.44667371198558
C            9.82578816682496       10.88212494095104      -10.56830908606025
C            9.58712894491152        9.83565361875362       -9.71020663448417
C            7.78344710464470        5.67322222763382       -6.55691806625890
C            7.46946312874773        4.62044968489732       -5.70645621025961
C            7.32381749874362        4.81856652835550       -4.35376683990977
C            7.50213579617633        6.11741451574944       -3.81734477680970
C            6.97582159320768        3.70015142573727       -3.46864049524081
O            6.80926671478958        2.57610279795424       -3.91327866472955
H            1.22170211334659       -1.97242908385975        0.15906756107276
H            1.27300261588178       -1.25298309707408       -1.44752418888579
H            0.68757288182277       -0.31238999261906       -0.08497662645435
H            3.57646083717375       -1.31325240967171       -0.40599759269311
H            2.99491034918902       -0.37849332399144        0.94401223303141
H            2.41823396410969        1.51032738348004       -0.61664643179213
H            3.01918341167122        0.58217333458076       -1.96468238982217
H            5.28921794791481        0.47328544804056       -0.83839180520057
H            4.68532282750285        1.48389608683265        0.44265723845265
H            4.81586100932776        2.28939440779187       -2.50229007082922
H            4.64733073601511        4.64445259960409       -1.06945140018596
H            3.62492795485170        3.63217394515101       -0.09926841234512
H            3.31350042526723        4.12900969382365       -3.12049370195938
H            2.27955138860247        4.79782173654112       -1.86386544851863
H            2.26436369132058        3.07077445942204       -2.19561691659708
H            7.05776434141071        2.01986747936128       -1.44032754557464
H            6.59796986970547        3.16940006299881       -0.19332086137217
H            7.41653321815333        7.78669682523353       -0.87519634458300
H            7.99156925223463        9.66886732408355       -2.36573281032758
H            8.24660201859773        9.29814492987918       -4.76835945783758
H            7.53921429138860       11.37872269467044       -7.52861453208534
H            7.96068134682919       13.25007460841140       -9.06978466421041
H           10.63297157725627       14.03189148750544       -9.00179721530863
H           10.73533863816741       16.33109605246694       -8.13219074386957
H            9.70964327256283       18.16949608992310       -9.40147773860207
H            8.57623266424460       17.70697961410458      -11.53366693504696
H            8.46371397447323       15.40380029709170      -12.38918585638173
H            8.22415620936137       11.35225200752672      -12.68527095810389
H            8.45875645102723       10.92459151490404      -15.09561507922562
H           10.84746743346841        9.76464800141940      -19.05027568104656
H           10.92307809456317        9.18773784910762      -21.44737601171169
H            8.60705021263989       15.25006933805992      -23.02160492655511
H            8.54471751678569       15.86191144276977      -20.63078123434215
H            9.23718456610119       14.24669939802231      -18.93156284706560
H            8.83557362286378       11.42948445728237      -26.24744058496727
H           10.08781176030524       10.24269887338682      -25.94134999369056
H           10.59480321638715       13.18598886531935      -26.55692860538305
H           12.98594631281873       12.25969530321260      -27.00912860641393
H           12.48774879146560       10.84040361261859      -26.13566582399321
H           12.45022899438057       13.69896573461254      -25.00376428748215
H           13.67749222465647       12.48855577402846      -24.64079456732263
H           12.02198246664063       12.25668771797664      -24.10295532798601
H            9.60068110531052       11.75235848764173      -28.43138219255760
H           11.04424184533688       10.78133654373823      -28.38333079375912
H           12.42483860609696       12.81529718788902      -28.95428861197149
H           10.99097596097308       13.80015449656665      -28.92244232407684
H           10.01629344992980       12.43483554585921      -30.80256486528394
H           11.44889873761649       11.44432389899313      -30.82601684116885
H           11.40162440242644       14.46663728014144      -31.38583878833919
H           11.58140495268211       13.20870374584096      -32.60483965641388
H           12.84686065156697       13.46892726012162      -31.40844079643110
H           11.23987354129617       14.12735948925040      -15.39319219553695
H           11.02218440141010       14.53891024734815      -12.97660830327142
H           10.47503903960188       10.75191025427691      -11.41614799892056
H           10.03836702739419        8.87447326556386       -9.88728100406100
H            7.88687162862936        5.49494365098406       -7.61364192660320
H            7.33056945638568        3.62836563222157       -6.09991351872532
