47
 energy: -7.959617030249 gnorm: 0.000343960488 xtb: 6.5.0 (97a52f5)
C            1.07821553915933        0.01743150080125        0.49536708460682
C            2.57860387773776       -0.15735870870590        0.32114395182191
C            2.94397147940391       -0.88912516613376       -0.97155444229546
C            4.45081912892459       -1.06317439034841       -1.14874145748019
C            4.87249400168135       -1.91760797627600       -2.35908660998777
C            4.43949804194695       -1.31723386004600       -3.71796715509184
C            3.08727820477879       -1.81045420022845       -4.21291661628842
C            6.38992547653868       -2.14117546409412       -2.34319330427329
O            6.82287519751106       -2.97876707193612       -3.39095301695345
C            8.16200164222201       -3.25562640222626       -3.25981873415447
O            8.86140109387193       -2.84517118469862       -2.34994625011648
C            8.73298257707605       -4.10341506594951       -4.30918544759753
C            9.99268637189434       -4.53942513218927       -4.26085859066933
C           10.63556989644362       -5.37502362498154       -5.26848784876005
C           11.81916340809732       -6.04501534940654       -4.95895319597495
C           12.44420285421844       -6.83705933830026       -5.89716666707472
C           11.90895396497766       -6.97175603094893       -7.15672453915896
C           10.72980987093408       -6.31126635436726       -7.51177333610196
O           10.25173216485095       -6.49028403327061       -8.81705766446495
C            9.07680702329533       -5.77252276586680       -9.12018257531545
C           10.10898431335175       -5.51711100484942       -6.54717975993089
H            0.83097729123516        0.53848600327987        1.42263836720153
H            0.56875832083334       -0.94737391447430        0.51478170861327
H            0.64983974605990        0.59127927528358       -0.32802555703664
H            2.99670772879153       -0.70278010539436        1.17721010357965
H            3.07713736730171        0.82061469602229        0.33686004462822
H            2.52966680921558       -0.33886925352735       -1.82328587877237
H            2.45479716933958       -1.87016060520349       -0.98816746888780
H            4.86677004768779       -1.50890987306572       -0.23768722983026
H            4.92712061070996       -0.07980318967289       -1.22543071807444
H            4.39918646085184       -2.90760161299602       -2.26803750597106
H            5.20474671854961       -1.56661035480095       -4.46505486951839
H            4.45654345427092       -0.22278684382730       -3.65109745570250
H            3.09169012461089       -2.89275356511883       -4.35243338235228
H            2.81479077283627       -1.35951795044825       -5.16931492721540
H            2.28642548736052       -1.58534748499850       -3.50965252965736
H            6.71054183165094       -2.59217018329389       -1.39632838283360
H            6.91672861616761       -1.18526791541056       -2.44104290100742
H            8.08796968595349       -4.37883795992496       -5.12084862110355
H           10.58366231487660       -4.26076876633973       -3.40611128797824
H           12.23890735686327       -5.94134066096217       -3.97314874848399
H           13.35578524393994       -7.35280261427651       -5.64307066242138
H           12.39161896869297       -7.58712368467969       -7.89509096161143
H            8.80372109346565       -5.97128840372105      -10.15737093014138
H            9.25212434222935       -4.70225739589645       -9.00185674081510
H            8.26214678690425       -6.09971277264128       -8.47263461550226
H            9.21114952068456       -4.98835323988264       -6.79976267385002
