82
 energy: -17.571460276177 gnorm: 0.000712545014 xtb: 6.5.0 (97a52f5)
C            1.09807660214005        0.20666128033440        0.41394218304142
C            0.26858906160289        1.12989043229005       -0.10615558786835
C           -1.17848734617994        1.11198229667120       -0.01458825475345
C           -1.84278537229672        0.15742845642746        0.73281313949892
C           -3.22415214375439        0.17462790622502        0.78363892942671
C           -3.96484564659428       -0.80885055431592        1.54997099198297
C           -3.42615140652955       -1.71468803313442        2.38675716288549
C           -4.16704294982601       -2.71134907823045        3.13471830772313
C           -3.50230743271746       -3.49172436857045        4.08675559997864
C           -4.16872851664749       -4.45153468525047        4.80604320021586
C           -5.52919162304314       -4.68154144449707        4.60336341198733
N           -6.22091241415782       -5.68954543314088        5.34745137107965
C           -5.84367482075011       -5.96964908598455        6.70505003545936
C           -5.83214111035892       -7.27672261257331        7.18600623117971
C           -5.46818493366549       -7.54373205505352        8.48676381396726
C           -5.11065745079494       -6.51107993426897        9.33175249775046
C           -5.11915872616598       -5.20898788389613        8.87064065690390
C           -5.48221562781452       -4.93957135250170        7.57018314635183
C           -7.28195023612614       -6.43961889290578        4.73522557255817
C           -8.40765537060188       -6.80846320405582        5.46769382203779
C           -9.42086644268663       -7.53351228715722        4.88160889207850
C           -9.32890082806336       -7.90439476934813        3.55411718048469
C           -8.21817886166111       -7.54769437887260        2.81446163262142
C           -7.20368342262386       -6.82289522397553        3.39836821026158
C           -6.19543137957448       -3.90822033018286        3.65271627579128
C           -5.53226015754627       -2.94373413396537        2.93518711796040
N           -3.91244282666271        1.10450385650221        0.11106915553983
C           -3.17331722221665        1.96387331052947       -0.55532937287625
N           -1.86667449640653        2.05116578438914       -0.67436118612281
C            2.54455796606450        0.23060059988835        0.32268795860669
C            3.28307655430630       -0.84066190722072        0.83663199051890
C            4.65352121079399       -0.85290528058290        0.77039712418184
C            5.35152708309898        0.20637670477988        0.19135494598511
N            6.78070264562882        0.19228422949375        0.12424084038139
C            7.48349594973900       -1.05198876572829       -0.02386336794732
C            8.66972099138006       -1.28583784746231        0.66760420805475
C            9.33973758631605       -2.48074775467295        0.52964180333040
C            8.83911048531647       -3.46315296285559       -0.30252408445765
C            7.66554095148272       -3.24527507016285       -0.99788730948086
C            6.99352499415176       -2.05137763320038       -0.86127356805193
C            7.52413858061204        1.41666549908357        0.23008325387415
C            8.67608744281201        1.61623808161588       -0.52685836386970
C            9.39411523257955        2.78600640866202       -0.41844210964747
C            8.97610157013207        3.77759457505767        0.44771083064958
C            7.83664709482385        3.59413564506516        1.20676001859040
C            7.11729790506006        2.42501585844849        1.10057563587611
C            4.61971525213480        1.27834294418493       -0.31930583059881
C            3.24820824019920        1.29170037293890       -0.25763543391429
H            0.67466109368791       -0.63370056822426        0.93213516756751
H            0.68567184348049        1.95181357080679       -0.65612746308650
H           -1.29184047498786       -0.59290442099850        1.26371091886811
H           -5.03174386782245       -0.77818523085996        1.43471436053308
H           -2.36275400128260       -1.70713573190658        2.53951180939332
H           -2.45088267639056       -3.32996987794059        4.25253766014878
H           -3.64295433438983       -5.05166781695157        5.52777960142079
H           -6.10388855839990       -8.07752047104654        6.52083513430876
H           -5.46100124755035       -8.55998724694704        8.84567133100792
H           -4.82568138445547       -6.72112768059535       10.34970460857818
H           -4.84210893113684       -4.40246961522800        9.52970959422527
H           -5.49898581577539       -3.92660106353520        7.20771199747518
H           -8.47649541288672       -6.51129025750472        6.49947604024566
H          -10.28723951006860       -7.81146016846223        5.45927936556441
H          -10.12264809282754       -8.47164812242839        3.09614774284880
H           -8.14468144674657       -7.83791923014778        1.77910092669051
H           -6.33120768956358       -6.55144706690124        2.83021831670816
H           -7.24687051658228       -4.07410888227680        3.49567114286750
H           -6.06943871657107       -2.37032581186893        2.20130916747829
H           -3.72926129246566        2.71950616493632       -1.09343181879056
H            2.76049785520790       -1.66615559548544        1.28895175407201
H            5.20913470650049       -1.67880156962888        1.17857215071844
H            9.05027602819415       -0.51970891664852        1.32020090262407
H           10.25522720943961       -2.65010569952412        1.07264524584496
H            9.36373930265774       -4.39859886438579       -0.40882131727876
H            7.27528496542180       -4.01051724425471       -1.64880822036779
H            6.08331952200048       -1.87232996091794       -1.40646666286855
H            8.99280320280182        0.84278357766951       -1.20446813736459
H           10.28351273169133        2.92799804732144       -1.01036898980679
H            9.53908087300717        4.69270454830249        0.53234006497323
H            7.51089155300005        4.36639340188679        1.88432223258135
H            6.23596399741999        2.27128547931572        1.69835672014923
H            5.14987752144756        2.09556070772593       -0.77618692491082
H            2.71203692902818        2.13363433789442       -0.65684710165997
