47
 energy: -7.518801945550 gnorm: 0.000450444261 xtb: 6.5.0 (97a52f5)
C            1.14627302857620        0.80161328978720       -0.44868032022045
C            2.58124603307223        0.37952324297569       -0.17418582969479
C            3.11703516409616        0.92778157493747        1.14909733594120
C            4.55929843706942        0.50187990373948        1.43018475679457
C            5.13266698121417        1.03654457991028        2.76670931259780
C            4.92091820616432        0.07574298567757        3.94897164084675
C            3.46784524444164       -0.19818840102208        4.29930287617139
C            6.62765026158637        1.35367558728988        2.63349781823253
O            7.16439664412957        1.90995885147849        3.81217014180040
C            8.51272098359579        2.12922525179808        3.66996392552876
O            9.14639631293854        1.86855926079859        2.66210252499274
C            9.18054411962881        2.71225352789879        4.83609298953929
C           10.48127287344323        3.00537254003151        4.84683371188339
C           11.12661292332003        3.55971917983259        5.96582609714911
C           12.43070066645892        3.88242137270995        6.08629721125631
C           13.03361095746226        4.41941879096578        7.21053262483459
C           12.47136801907574        4.73039779850617        8.43514546978793
C           11.19347641248795        4.57023894468076        8.83904205084524
C           10.09196300820806        4.06885212877601        8.22908377202865
O            8.97073024638704        4.09400344741246        8.96990763108941
C            2.14845561182707        2.19315499068227        7.19923006296090
H            0.77694761140416        0.40609990466403       -1.39708722557170
H            1.05578506030370        1.88830888394925       -0.48837644135357
H            0.47511998939832        0.45112003545845        0.33708711607391
H            3.23459103409606        0.70712775874819       -0.99323687659209
H            2.65818312900427       -0.71550859201321       -0.16983124511715
H            2.45954087137938        0.61278589350968        1.96521524367529
H            3.05292831215705        2.02247447953948        1.14396608610848
H            5.19033944707519        0.84835385794822        0.60313020513464
H            4.64351780773606       -0.58996299333193        1.40878588993521
H            4.62142754633733        1.98240077737306        3.00405822648023
H            5.44057830231644        0.49003929361565        4.82284077951976
H            5.44028953849571       -0.86549359185308        3.73291343056683
H            2.91731235545909        0.73050009312675        4.45618526710059
H            3.37513819933173       -0.79081122765816        5.21185041276620
H            2.96305463670517       -0.75384704220406        3.50844905591980
H            6.81245291823034        2.06030526178011        1.81553872015185
H            7.18931611740962        0.44054647356843        2.40659580953390
H            8.58696829817118        2.90393311490378        5.70998602090739
H           11.06253284120942        2.80802319765045        3.96340464553164
H           13.05197519042972        3.70566615586835        5.22284052767332
H           14.09029032192045        4.62527816708724        7.11709644578874
H           13.13132860902837        5.15578919670451        9.17501350215356
H            8.72222703179873        5.03120665708357        9.31353167615455
H            8.16971015178597        3.62765166541451        8.52082695701088
H           10.28039656646136       -0.00719897141305        2.28862880117253
H            1.74883597834077        2.94784270175323        6.63669116579139
