47
 energy: -7.954787727679 gnorm: 0.000426856630 xtb: 6.5.0 (97a52f5)
C            1.23537729695677       -0.38078386523800       -0.55872673572760
C            2.71535772269739       -0.17822978631601       -0.27298984541958
C            3.11842996655008        1.29732507221284       -0.26064730656383
C            4.59711592119037        1.50907118897477        0.05842579775954
C            5.08603464456499        2.96474000567068       -0.06052834796509
C            4.35313826616838        3.94104549642142        0.89083758249702
C            3.13220180190076        4.61069838710783        0.27660058980118
C            6.59875422483160        3.04021859776428        0.18269970103241
O            7.10433941845255        4.34265853708764       -0.00491032283755
C            8.43524711700465        4.39975364999965        0.33442835707831
O            9.07067814761192        3.44682894491501        0.74975541089742
C            9.05361163870327        5.72821167824790        0.18248016293565
C           10.32450267233099        5.97489795061291       -0.16309714874624
C           11.33582526608713        5.00083299658550       -0.57501909556607
C           12.68349619382263        5.24999459393727       -0.31341091610756
C           13.65638211269800        4.36918151275141       -0.73335797776792
C           13.30980267923848        3.23139734430574       -1.42389612007598
C           11.97282644403153        2.94599613935703       -1.71367925045339
O           11.69397967955871        1.76889119288408       -2.42103148411590
C           10.32076958712527        1.48889043060659       -2.57533049384917
C           11.00414431448776        3.85279366169373       -1.28407236870092
H            0.96067333672710       -1.43757354685728       -0.56974846886135
H            0.95945406431831        0.04072769155622       -1.52677629637891
H            0.61761579251452        0.11127736061264        0.19445794895124
H            3.32043459932734       -0.71359392324082       -1.01629045169690
H            2.97951710916270       -0.63380043659305        0.69031461754191
H            2.50088345002037        1.82953267213197        0.47124875254337
H            2.88151054361061        1.74978673119484       -1.23079643406897
H            5.19973898911783        0.87618308476211       -0.60344562005581
H            4.80908607733170        1.14466758969420        1.06941990239188
H            4.90673435377666        3.30854673128925       -1.09105667050387
H            5.06479269841159        4.71688687054916        1.20309412085835
H            4.08767827771259        3.41411797770749        1.81520067063762
H            3.40500773563007        5.18331900516699       -0.61136724530852
H            2.65275960727141        5.30057105283994        0.97415723636558
H            2.37827655273650        3.88718141102349       -0.03130741228024
H            7.14370146764873        2.36674839543639       -0.48902476709547
H            6.83207043249806        2.73339819653150        1.20857113321931
H            8.40148405640719        6.56005782197260        0.38571400138818
H           10.65120199078191        7.00265317234366       -0.16637275435785
H           12.95596211966580        6.14194585242135        0.22421758089574
H           14.69317381155627        4.57337015172863       -0.52110207896592
H           14.06340526952623        2.53908863341630       -1.75514549343413
H           10.21349587766630        0.52328939528062       -3.07141657488758
H            9.85020247349894        2.25591108487199       -3.19204601031027
H            9.83948014912787        1.43849332480699       -1.59727515507134
H            9.96941404794170        3.66848996977361       -1.49883471961522
