60
 energy: -10.892212238010 gnorm: 0.000376700304 xtb: 6.5.0 (97a52f5)
C            1.16933341628744        0.43003501775716       -0.83085274393570
C            2.59281210296064        0.94197349678081       -0.67579198521925
C            3.06262054824381        0.95477162471388        0.78023364795885
C            4.49997792137110        1.44686935179125        0.93529441389918
C            4.99458692206544        1.57688376053606        2.38866477630161
C            4.95976242131477        0.24126552902359        3.17086833017266
C            3.67482729016929        0.01491602363155        3.95491896339156
C            6.41359315115007        2.15722103359980        2.41192275036452
O            6.91032858367253        2.30175656347064        3.73817414016900
C            8.26896443311157        2.63526073249410        3.82172096448112
C            9.05634660745093        3.03893177074072        2.72154453243268
C           10.38266164859856        3.34388713027863        2.86316711836527
C           10.98997124581184        3.25628881497920        4.12532951390755
N           12.31882459730609        3.52448628777250        4.40139921597942
C           12.59572399372592        3.34619747277453        5.66384546939767
C           13.90048423110565        3.54469164168316        6.22633718676058
C           14.25961915614390        3.32315799178673        7.52943760885699
C           15.61618721313150        3.60342324404507        7.80811532402085
C           16.32853261907750        4.04943740593245        6.72655208155328
C           17.73375015413104        4.42491355231293        6.69453437537221
C           18.29846205005668        4.92639322953511        5.52025823175948
C           19.61892078307513        5.29270162163197        5.46677760974646
C           20.44800981494758        5.17588548787232        6.58736897223164
O           21.78158668705184        5.57627504951259        6.45108877225606
C           22.56430205470082        5.43001424887979        7.61484852409995
C           19.88379141177186        4.66887548593067        7.76345158523366
C           18.56083353334651        4.30413510483311        7.81475484546243
S           15.28143188747251        4.11358487570768        5.32928519059757
S           11.20900919118136        2.82995194844289        6.64463462407685
C           10.21244642909309        2.86036031507888        5.22250309764652
C            8.87191643159265        2.56018261254100        5.07450551450384
H            0.84783890108516        0.42222414158312       -1.87447191627063
H            0.46451819981156        1.04994546106506       -0.27432203212180
H            1.07310613602952       -0.58814965738193       -0.45009712359281
H            2.67847017169756        1.95332738934168       -1.09407157982697
H            3.28096228648289        0.32874324823633       -1.27228925012403
H            2.96936899828664       -0.05564051119343        1.19312195101610
H            2.39043793376432        1.58089182957578        1.37866519856468
H            4.60229809155209        2.41727835230061        0.43558629330839
H            5.17438384766644        0.77601975021773        0.39194465778867
H            4.34184262388093        2.28802609888895        2.91861328862890
H            5.80886177393319        0.22743496764123        3.86727774500800
H            5.14954793298996       -0.58857018380313        2.47942320872030
H            3.51695236591554        0.80997194469259        4.68566372631278
H            3.69246961394530       -0.93040299224979        4.50125463354030
H            2.79754449010610       -0.00101813823713        3.30908075417467
H            6.43892478837187        3.13760839757710        1.92453794498250
H            7.08897143706491        1.48991392976942        1.86698414056624
H            8.60393752419906        3.11803066510173        1.75010738861142
H           10.97443490300839        3.65184354763602        2.01975736161222
H           13.56240652966819        2.96473285867311        8.27062628246875
H           16.04513591822656        3.48038800539968        8.78971768425024
H           17.67588465587305        5.02481843102534        4.64847512037057
H           20.04297611609854        5.68083709422594        4.55766289232900
H           23.57728503523541        5.77275173419240        7.39967065854491
H           22.60304940077639        4.38030881763122        7.90910763498400
H           22.15174102146521        6.03720192046741        8.42174722086458
H           20.49340417411061        4.56263541439323        8.64218050708380
H           18.15246236772408        3.91633874187572        8.73100995202374
H            8.29035422994521        2.25628031526365        5.92444300432250
