56
 energy: -10.290072263716 gnorm: 0.000741599614 xtb: 6.5.0 (97a52f5)
C            1.05657464839159       -0.43563444229201       -0.86947653581666
C            2.50872987268112       -0.15394620730885       -1.22262439200538
C            3.03575933178902        1.12875729859613       -0.57697473185349
C            4.50083962392858        1.40555091386322       -0.90889276604718
C            5.03873277252124        2.75324190046724       -0.39239867200972
C            4.96894509723981        2.89316410535197        1.14809238840731
C            3.69760370229818        3.55940817769307        1.65416671382419
C            6.47960920888039        2.97196484439673       -0.86863921287912
O            6.97998129571886        4.24174144233110       -0.46368012063802
C            8.33555573389842        4.45994175718560       -0.73949316016469
C            9.15592449522700        3.57351033766322       -1.47122651074404
C           10.47834958591401        3.84303569425327       -1.69776391566118
C           11.04800208311953        5.02481106155229       -1.19795512994823
N           12.36714709772219        5.41321603096883       -1.34987260121478
C           12.60218197695738        6.55875618964764       -0.77049044008086
C           13.88630934639887        7.19943609566260       -0.76010367784718
C           14.18184863772226        8.39809409041382       -0.16573997181834
C           15.53052734225038        8.79343870620030       -0.30703375785851
C           16.30070676444990        7.90855981524519       -1.01322754748389
C           17.71882932469950        8.03418613549269       -1.32657875032836
C           18.37310468488283        7.01793202411962       -2.02386270462750
C           19.71071850942162        7.11654810877318       -2.33630538432091
C           20.42638030300015        8.23506934125336       -1.95863282462743
C           19.79954149783386        9.25279342792789       -1.26723463979568
C           18.46137785795641        9.15637037271711       -0.95284879441834
S           15.31767259342899        6.55227235112137       -1.51098011148927
S           11.18589146710705        7.27707887781058        0.02253775841365
C           10.23708815327943        5.91049036313050       -0.47435823975769
C            8.90211411588702        5.63463237297527       -0.25161896213930
H            0.69006008039831       -1.35104398379776       -1.33894222159135
H            0.40731481393157        0.38085398238842       -1.19021704860244
H            0.92696767985924       -0.54503905983381        0.20866899928175
H            2.62660046574921       -0.08690807919019       -2.31212826127923
H            3.14158592214260       -0.99849060114430       -0.91983386440398
H            2.90749908553693        1.06047540612318        0.50899102495918
H            2.41892051069412        1.97844684756746       -0.89286799404755
H            4.63664350268089        1.36037673365136       -1.99589145214055
H            5.12525423231592        0.59801316868293       -0.51122306301321
H            4.42807908630822        3.56052624485075       -0.82629156738957
H            5.83532276386659        3.48066301818049        1.48059733696817
H            5.10501446048660        1.90673380778504        1.60791249258760
H            3.59203174697543        4.56482891798179        1.24286107359297
H            3.69144843536423        3.65090471566749        2.74239667230051
H            2.80349930909117        3.00490998842585        1.37085539757463
H            6.54182412691229        2.90839177029300       -1.96017809174142
H            7.12627057008119        2.19646885100287       -0.44605049564320
H            8.73315183299458        2.66737822671718       -1.86479952767835
H           11.09635201088692        3.16218830741213       -2.25555236304766
H           13.44412695356773        8.98129646409624        0.36309307863875
H           15.91325229910760        9.71186318959070        0.10866823066591
H           17.81343711870364        6.14748500968858       -2.31794243775053
H           20.19774084670378        6.32058884688522       -2.87575641385766
H           21.47290237683698        8.31364859458934       -2.20396612250539
H           20.35819932005527       10.12651092935066       -0.97335295734590
H           17.98198430859009        9.95552905724923       -0.41605375450286
H            8.29520901550471        6.32238845852692        0.30670002490345
