54
 energy: -11.220632144924 gnorm: 0.000282525116 xtb: 6.5.0 (97a52f5)
C            1.18587436152216        0.24340472722608        0.36835254880859
C            0.37748419943449        1.26999132041185        0.06919412985222
C           -1.06849274758174        1.28877162356355        0.26559994894153
C           -1.82832320054643        2.28679257734907       -0.33941379480329
C           -3.21098166047007        2.35031438530218       -0.18725789788965
C           -3.96045848060142        3.40934393183296       -0.85569029916472
C           -5.22371107728711        3.75754207446891       -0.57306995560098
C           -5.97400139223542        4.80996738675676       -1.25047353018991
C           -7.16259403239104        5.28157107147734       -0.69064518500120
C           -7.89395512187915        6.27139240019947       -1.31060105998755
C           -7.45821522012139        6.80976500431920       -2.50473066112763
C           -6.28857608618672        6.35314781838037       -3.07856084868694
C           -5.55352422748513        5.36422442211498       -2.46095372266738
C           -3.83336052214214        1.37949794907499        0.59333003683999
C           -3.10682262641966        0.37152901248658        1.22307429651309
C           -3.80799338399577       -0.62222966003344        2.03011780925820
C           -3.22869820169574       -1.44597897716618        2.91490859078859
C           -3.93265391041084       -2.43869047857909        3.72033982008515
C           -3.29612708969926       -3.01252974337726        4.82221619899780
C           -3.93716949101880       -3.95094782790588        5.60156438822342
C           -5.22547485309931       -4.34159547099342        5.29610495128704
C           -5.87031574849157       -3.79184972658929        4.20618031403454
C           -5.23323915695761       -2.85159670650107        3.42518982270794
C           -1.72521843769781        0.34106466670565        1.04717207114643
C            2.63087871533009        0.22805942339199        0.16569875858571
C            3.32624770909648       -0.97972048045716        0.24491451534911
C            4.69045425314071       -1.02587140577625        0.05558826445035
C            5.39203768601610        0.13218426592743       -0.21316514463795
C            4.72453193983023        1.33820639584676       -0.28878187164791
C            3.35990286198453        1.38848005557666       -0.10115672513166
H            0.75201854268813       -0.65759131021786        0.76200995247453
H            0.80539960087520        2.14831273432617       -0.37853378704454
H           -1.33438859308248        3.02669681672136       -0.94369076103544
H           -3.43232366259948        3.95736843595868       -1.61466097194751
H           -5.73124391292244        3.25053159460058        0.22737632931828
H           -7.50376195938526        4.86359205655442        0.24117704100292
H           -8.80788654503602        6.62608360062716       -0.86233502023941
H           -8.03133851114882        7.58316822516705       -2.98980420468848
H           -5.95101422358150        6.76879127003596       -4.01421600749206
H           -4.65397894448342        5.00382740887355       -2.92780442147853
H           -4.90099942662041        1.39527548399509        0.71137555500291
H           -4.87568301675848       -0.66216762136062        1.91233534889271
H           -2.16974889662647       -1.36354838882907        3.07978263821977
H           -2.29208457919797       -2.70740593254003        5.06345619928669
H           -3.43235868406824       -4.37998808097559        6.45197846965556
H           -5.72625740891078       -5.07577778061521        5.90615201842801
H           -6.87417369177740       -4.10110151161108        3.96378605179642
H           -5.73941779412439       -2.44371507534323        2.56815195395014
H           -1.15448630210137       -0.43312947598915        1.52254201118674
H            2.78061331406301       -1.88453938737850        0.45218957955409
H            5.21073318520322       -1.96796874243932        0.11662449792190
H            6.45915409674728        0.09524586617291       -0.36109105708854
H            5.27298313856167        2.24362303757243       -0.49268486283710
H            2.85436921634524        2.33681674166156       -0.14554232217379
