112
 energy: -23.299467981116 gnorm: 0.000919933160 xtb: 6.5.0 (97a52f5)
C            2.57848801784138        2.72958803853301        1.49808882175023
C            3.71878672821567        1.85378292855387        1.00261722593904
C            3.96196051840646        0.63647026813030        1.89686886133211
C            5.09183379869192       -0.25759750906630        1.38998369626538
C            5.44871351419397       -1.43716240169574        2.31499154312574
C            4.26266192496653       -2.41207953076455        2.53844445922111
C            3.45177779602008       -2.11773202173219        3.79226758372698
C            6.67533069676292       -2.18320269175185        1.77623137620745
N            7.10771179448734       -3.26223168675594        2.67231507886725
C            7.68855933192195       -3.07556641685915        3.93340808083875
C            8.10762596217117       -1.92206372576647        4.58784074145627
C            8.65051947076469       -2.00334345962452        5.86195425321385
C            9.09235785741274       -0.75821821220224        6.52726703497622
C           10.30722273704981       -0.68913943744042        7.21145758325724
C           10.72454671896305        0.47990709688453        7.79754414215518
C            9.95070405931689        1.63688321936843        7.71875505594197
N           10.39226982978021        2.85796053530314        8.31956939376109
C           11.79566998294562        3.13594169717029        8.45502434365614
C           12.69070353133013        2.81447743092788        7.43732566172215
C           14.03381392125340        3.08634339332792        7.57157018301796
C           14.50780982592357        3.68600485135701        8.72216726779974
C           13.63236799663033        4.01470909874703        9.73884069666528
C           12.28891362542190        3.74380026306038        9.60705044566168
C            9.43955352866066        3.82431439388324        8.79228481938842
C            8.28173019867882        3.42390102937919        9.45497869362113
C            7.37504794767071        4.35522536249744        9.90923431064861
C            7.60779927151346        5.70259485251516        9.71230487841786
C            8.75321873516125        6.11579304300841        9.06010999093688
C            9.66146007040343        5.18659590667575        8.60513381309589
C            8.73879503974330        1.57268102904160        7.03265669462298
C            8.31878635496893        0.40257867873454        6.44999723967171
C            8.76645815347598       -3.28208701558029        6.49697608073500
C            9.26305836462679       -3.42757160683132        7.80157445904941
N            9.67314188698763       -3.57270883345836        8.87875551380748
C            8.35513885300903       -4.42531850632805        5.83877415392761
C            7.81837842209810       -4.33135513200454        4.55507442132288
C            7.29163032397825       -5.31515109859213        3.64556613315894
C            7.14054927149190       -6.69861179126789        3.73871886416415
C            6.54774802064934       -7.39576267125104        2.70356920131786
C            6.44333939601389       -8.78970287513322        2.82827101613800
N            6.37431020177104       -9.94320508024045        2.94754246791861
C            6.08183083016488       -6.70075263127137        1.54171764006894
C            5.39543277500032       -7.40375160751856        0.43552320114148
C            5.71243027936548       -7.11980716543122       -0.89496173839069
C            5.03784121004455       -7.72447407570821       -1.92651832142229
C            4.01287307896462       -8.63544758662442       -1.67466819598034
N            3.28673136226412       -9.24127693701164       -2.74935348478330
C            3.93435221734203       -9.50917331809772       -4.00332666475506
C            5.24561127924121       -9.97708500080826       -4.04399681207677
C            5.86246646617442      -10.23452852895790       -5.24781903894944
C            5.18201614646995      -10.03059236970626       -6.43257320576346
C            3.88056592407841       -9.56828629391070       -6.40903473312249
C            3.26155581408464       -9.31038418733871       -5.20659771190118
C            1.89280124419058       -9.55231731086204       -2.59368627418367
C            1.04350192730485       -8.69440707522376       -1.89856446606651
C           -0.29385275005505       -8.99019237394922       -1.75931351891212
C           -0.80871918383127      -10.14665807630160       -2.31211623925066
C            0.02021232151204      -11.00705116066758       -3.00563548384913
C            1.35802003280084      -10.71362858623831       -3.14606065896330
C            3.69800791360104       -8.92449673606754       -0.34763814514954
C            4.37225090563580       -8.32053764950341        0.68418687896994
C            6.25504763656048       -5.32740058440567        1.45177710779936
C            6.85659121567238       -4.63050545328849        2.49497760874288
H            2.41504561598015        3.59472108125675        0.85188160489983
H            2.77695089631189        3.10330286101606        2.50412481248665
H            1.64237220245585        2.17031197659981        1.54143195168757
H            4.64313483202085        2.44169866389213        0.93058190528620
H            3.51695839716913        1.51521817972034       -0.02220905024467
H            3.03503446457264        0.05728594364568        1.97223787564750
H            4.18397515189660        0.96909385797845        2.91787621839552
H            5.98737581145971        0.35382840011861        1.22915572047691
H            4.83370808460247       -0.64914551443864        0.40002113942424
H            5.72210882336954       -1.02711674278388        3.30006309506272
H            4.65280583264047       -3.43507150836502        2.60265126876092
H            3.62210502847341       -2.41310257938905        1.64817398884633
H            4.07526102923269       -2.18296314464241        4.68561438197194
H            2.62705520691269       -2.82222817261611        3.91867894750263
H            3.02346664910789       -1.11603409626776        3.77641343761681
H            7.51511076564080       -1.49819471138343        1.63318845098296
H            6.45264987525239       -2.60612143274097        0.79464682216453
H            8.02801400503901       -0.97198175622964        4.09414462313426
H           10.92269640561319       -1.56979709959807        7.26867522045444
H           11.65574524268485        0.51321037267685        8.33514464903149
H           12.31416560392806        2.35834181626521        6.53854223292130
H           14.71603058775429        2.83211209306295        6.77693060539332
H           15.55934793705613        3.89801677339814        8.82637900386583
H           14.00128141017711        4.48281735438928       10.63677126975149
H           11.60248521328390        3.99137587570844       10.39776184867999
H            8.11172551239636        2.37372063871182        9.61596937523340
H            6.48285685006809        4.03263586518813       10.42057735287819
H            6.89730800915362        6.43060319488606       10.06817703200974
H            8.93557566577333        7.16678140919989        8.90598567109983
H           10.55231325670205        5.50122617680559        8.09021255702805
H            8.13860371463853        2.46213982886936        6.95430005752553
H            7.37649358568594        0.36838937463666        5.93093863687284
H            8.43646623282862       -5.38419857483189        6.31713667180649
H            7.48511512169003       -7.21866656771582        4.61377832330494
H            6.50016429038924       -6.41693240173501       -1.10490297105463
H            5.28128756791395       -7.48599904172861       -2.94691376998092
H            5.76700797138442      -10.14358708906840       -3.11762584105248
H            6.87726865626345      -10.59699785395337       -5.26559659909283
H            5.66571843858875      -10.23232861338349       -7.37428475036319
H            3.34933452628770       -9.40788315523145       -7.33294596193371
H            2.25069116975236       -8.94266870942807       -5.18188077774189
H            1.44771217569910       -7.78923336146150       -1.48029633176188
H           -0.94037224453595       -8.31745040265724       -1.21987581545090
H           -1.85585748262916      -10.37695723872686       -2.20313752395625
H           -0.38074668771228      -11.90978121154377       -3.43667787128644
H            2.01033231672587      -11.38338064797496       -3.67866779068297
H            2.91600707751040       -9.63436354231196       -0.14255320138311
H            4.10676146904436       -8.53936134832448        1.70378144118788
H            5.89852540580103       -4.79681192336850        0.58926603697849
