112
 energy: -14.574902112877 gnorm: 0.013084201769 xtb: 6.5.0 (97a52f5)
C            0.59494005959863        0.81795888182322       -0.15387817590472
C            1.97366240318158        0.29142330467101       -0.52193465239342
C            2.56772826884505       -0.61477221742273        0.55818219918217
C            3.94741608653519       -1.15659778973465        0.18825694225046
C            4.65811601863766       -1.93950962891579        1.30950638198656
C            3.88143255293794       -3.20430859295813        1.75671987998293
C            2.94184878811531       -2.97057923587436        2.93121660473783
C            6.08753098101257       -2.29765862779877        0.88250825829040
N            6.86283896951104       -2.90723068295477        1.97479761394984
C            7.33257420752126       -2.20555873757799        3.08983994652230
C            7.20207876542387       -0.82733693124824        3.28693119068696
C            7.61455892183780       -0.17370276581787        4.38247660526887
C            7.52149496380644        1.18433072770492        4.63544199765844
N            7.13212632565280        2.12458393902511        3.88514447540236
C            9.34501938875277       -2.57231731727188        8.82089641787840
C            8.38120063928639       -3.09637130517138        9.48808627589682
C            8.04070923283600       -2.85567921346113       10.75213815554152
C            8.74510241601942       -2.13679575151297       11.63052706407334
C            9.97122065288259       -1.65077256708642       11.49361283569890
N           10.71058449618962       -0.95021807186474       12.29859494041349
C           10.48730413731216       -0.49461678716399       13.50001607333012
C            9.43697147494396       -0.58397872000799       14.31096529933634
C            9.32565837386998       -0.08564335995389       15.49152735754999
C           10.65299782130092        3.59068714402013       14.37715153310835
C           11.57387847461659        3.28405432672762       15.22196471912058
C           12.53607873103917        2.45620108829332       15.04685470581588
C           14.78709238604995       -1.65559947090506        9.42152072934522
C           14.70360300265327       -1.95043317297895        8.17371158380110
C           15.38513989345463       -2.84135319826482        7.55096131835563
C           14.85415140106984       -6.74730390633422       11.25766623428035
C           15.27225222634867       -6.34609277340342       12.38354150082827
C           13.41711776544032       -1.92910915446297       17.19628432049553
C           11.61827444970267       -5.28744565321633       10.04616739850578
C           12.60834234954205       -5.51168134483886        9.50614302626348
C            8.52712018211330       -2.87880400869898        5.14698518457887
C            7.94914612664074       -3.14916008730031        3.95037240460213
C            7.85122742471259       -4.44639195599417        3.31979166405334
C            8.34871695933330       -5.64835430228527        3.84299241214403
C            8.25285688850670       -6.83199409688696        3.23052369485305
C            8.69531204409823       -8.04459785844439        3.65213405266142
C            9.08475340775307       -9.08486793200895        4.02879410949038
C            5.57545286732304      -12.27857208011786        3.81320556544412
C            6.48415542450242      -12.53357189906074        4.76204055041487
N            7.55474059651398      -13.28098307283176        4.72734276630362
C            8.02465576123379      -13.98669406322194        3.75095799771365
C            7.56233803311777      -14.17266483454672        2.51890057325801
C            8.15064946991298      -14.91360716353713        1.58921045016629
C            7.63926759049665      -15.13050416859021        0.37687361733867
C            6.42257781133411      -14.86000332729577       -0.06480649258680
C            5.44464105244784      -14.33801431433789        0.57460970127255
C            1.39420072349112      -11.87126720250715        5.80804133244770
C            2.10985655166961      -11.30324623590086        6.71228070283850
C            1.69481332135382      -10.66332815283522        7.74236003143055
C            3.94876302413783      -13.76783272555166        9.21024828582085
C            3.75666712881436      -14.73544956579354        8.38181115335941
C            3.96487652813601      -14.72424025055670        7.11920261837434
C            4.51032504188068       -7.86084917566075        5.67496605727629
C            3.97526675638975       -7.50018234575987        4.61152415646065
C            9.08871607218452       -6.70714240442118       -2.09978895536326
C            4.29744720269442       -4.97469607258257       -1.51894055727231
N            4.33701427300559       -5.73650109302107       -2.46664645174087
C            6.83417878424121       -5.24000060459535        1.20980400464837
C            7.16257641868023       -4.26956924356612        2.09293483423762
H            0.18354453529917        1.46689871521618       -0.92990628587708
H            0.62732140543300        1.39351843007650        0.77289780677176
H           -0.11133691924635        0.00010911732771       -0.00051811312712
H            2.65911235408973        1.12824472433092       -0.71059140167896
H            1.92769974596065       -0.25829881877586       -1.47132999992015
H            1.87948607236498       -1.44638522945256        0.74646553659829
H            2.62983699809653       -0.06340289351571        1.50414349100872
H            4.58637458063753       -0.32104669878987       -0.12129909190401
H            3.86740003385002       -1.79628275887380       -0.69744097262364
H            4.73313431800266       -1.27996158221110        2.18827904604076
H            4.60415317256787       -3.98170904522113        2.03313057233492
H            3.33942833976393       -3.61721121739263        0.89741077207685
H            3.49088302966329       -2.62465438735799        3.80874279827507
H            2.41178722530612       -3.88173455708030        3.21631458929296
H            2.18879455891657       -2.21510499585422        2.70966428435398
H            6.62397357438591       -1.41062867961339        0.53588554108190
H            6.06074942693154       -2.98098384233671        0.03229655325819
H            6.74405746979186       -0.25198924338953        2.50349029576296
H            6.62354203478537       -3.58493786081824       11.33905078641263
H            8.15906516026159        1.88896937199836       12.75124167323970
H            4.92319473162632       -2.93142003842473       15.39471452946263
H            4.91400471544938        1.76274911758291       15.54945492824546
H            9.17427248095409        5.57902347028042       18.39890603723967
H           15.06950374871634        6.25458410346471       15.68755694130033
H           16.23922478102537        1.81540316637397       12.43365524645138
H           13.65796097683832       -4.09791302417654        9.01988254443175
H           18.60610343114298       -4.19860590171617       10.36449820668172
H           19.51847468132604       -7.20793715532517       13.69035322003347
H           13.89887535444240       -6.57801319755058       16.85454704179839
H           10.22846222663788       -5.10105533995143       14.74424306142026
H           14.08150913706034       -6.27046791015930       10.73570550926455
H           12.56774351459491       -6.36819262364045        7.79147603889448
H            8.97338605699518       -3.60491536574772        5.75739345879705
H            8.83645288038144       -5.61888336133043        4.80144717032904
H           10.75984403642410       -9.54645401085044        4.59790493570469
H            5.91856039630228      -10.16174367117741       -1.91164733319750
H            8.06561418438299      -10.57744187900895        4.20491983302062
H            9.88974395481078      -14.36594194738657        1.49791210318660
H            9.12897357194397      -14.86807275880655       -3.88605590735220
H            3.12294019204115      -16.56839126021363       -2.78747311371453
H            0.94230992022052      -15.34478739614983        1.27960882817043
H            3.32799490664966       -9.87140065128007        2.05822546544057
H           -2.86153785618318      -10.18609751077146        7.33545489258202
H           -0.88873879792609      -14.22653296935722        8.88464379980696
H            6.18708410861133      -18.44520812742331        9.35903316817241
H            8.60986189965487      -16.50291877857748        2.30514875507587
H            5.00114091365881      -11.63635979689639        7.21991822772245
H            4.66741267276358       -3.91241907449077        7.45807920223013
H            6.28668997153884       -5.07189686547755        0.33244910182170
