120
 energy: -19.952877875003 gnorm: 0.000763264945 xtb: 6.5.0 (97a52f5)
C            1.16556739243690        2.29352662711037        0.94073832094657
C            2.37097348008537        1.56236400718190        0.37017861016935
C            2.79627239985642        0.36664842380647        1.22451430306916
C            4.00356358686983       -0.37468438781309        0.65298592087045
C            4.54943267648896       -1.50377657472574        1.54810368780049
C            3.51608523148139       -2.63375471716381        1.79757533929073
C            2.72020553041034       -2.46682884342802        3.08396580981264
C            5.84806706329367       -2.07135263632775        0.96306291273756
N            6.46823391871986       -3.05970175953723        1.85337319165647
C            7.05495163495631       -2.76432332962033        3.09028245902468
C            7.31702738379584       -1.54543274138216        3.71668548667878
C            7.90189184057061       -1.54003385983595        4.96828780952840
C            8.17081624775820       -0.32169574233794        5.61420523954820
N            8.38973709087185        0.68373306877545        6.15226288373410
C            8.22775975108264       -2.76059543669815        5.59459938296384
C            7.97892262923898       -3.96692141585990        4.99181435110546
C            7.38713333012763       -3.97514623278360        3.72618283629765
C            6.98488948644961       -5.04337247986819        2.84720757479805
C            7.04829099804950       -6.43369141850469        2.96621487969071
C            6.55092962026857       -7.20486669652234        1.94733053897621
C            5.98139694163801       -6.62962646737086        0.79144184583631
C            5.48414587580776       -7.45937304879435       -0.23165582598171
C            5.07446145250937       -8.21441121957394       -1.10197707436144
C            4.63804751723276       -9.13641020527255       -2.06695730573083
C            4.04967166223690       -8.68779677687181       -3.24687380352597
C            3.62009991717319       -9.56438068941964       -4.21517178274112
C            3.76212933515980      -10.94515354720170       -4.04780730479484
C            3.33136370179795      -11.87666958129543       -5.03591386397415
C            3.48631620067195      -13.20789453905475       -4.85464085103175
C            4.08245687444910      -13.74522332152941       -3.67258355160223
C            4.22087188834241      -15.10115271963363       -3.55907700478494
C            4.75102601532280      -15.90452410122734       -2.59789294211977
C            5.24711126870092      -16.58082002448773       -1.70814075871830
C            5.81787874282186      -17.28791025478805       -0.68996820380612
C            5.72184688795066      -17.10661678424798        0.62493413894663
C            6.33575209025854      -17.78194788849698        1.56567923917641
C            7.18909889036276      -18.79155445526087        1.40783023781574
C            7.84555982024526      -19.46539426216007        2.38687688063945
C            7.78451667591095      -19.23266221002645        3.69635556206446
C            8.41715096527287      -19.87515526195052        4.64726482910681
C            9.25431489657872      -20.89858053278358        4.50676113578630
C            9.93656600278097      -21.57123319895263        5.47101562454554
C           10.52646761163214      -22.14186753935660        6.30853072573234
C            8.41647428044634      -30.01414908854023        8.23730123291417
N            8.84902242621900      -30.46684291417528        7.18310411645554
C            6.78292392870076      -23.74601182373762        0.18300564663802
C            6.79487533253621      -22.54463582734348        0.73169895531030
N            5.64988046766332      -21.79981763207237        0.42611805132257
C            5.37937161008316      -21.59231069152784       -0.98036939188985
C            6.32552463890549      -20.76167510179248       -1.71888789403578
C            7.91029526690742      -13.94404279066472       -3.35429738359781
C            8.59627628062261      -13.79058333211045       -2.21368021666346
C            2.33255284018174      -23.85188259177451       -1.50040096831651
C            1.98636611231598      -22.98381161296566       -2.49942611855893
C            1.49377042243698      -23.98757689400179       -6.13527964279241
C            0.96155148005095      -22.82863220291715       -6.25832712123336
C            3.97537144904976      -21.11510324686591        4.34388190244637
C            4.25080466156822      -20.29967635509903        3.41158800381566
C            5.08973541940531      -13.26104722831975       -1.48630353432262
C            5.52039957922513      -12.38878614852789       -0.50771892147596
C            5.38596169253741      -11.05351913121105       -0.67491179665949
C            4.79447162833063      -10.52476107543889       -1.86192064550494
C            4.35513674367198      -11.43410951700450       -2.85978111427266
C            4.51529354684523      -12.84148742277826       -2.66100900131156
C            5.91837268464310       -5.25321940940043        0.67288286570160
C            6.41962600749008       -4.45292663762824        1.70067578501639
H            0.87237956571523        3.14518451428251        0.32326165003763
H            1.37185369927317        2.67051221200537        1.94388147563128
H            0.30218094235335        1.63047066824420        1.01731461419559
H            3.21749236180619        2.25382247978683        0.26690693723260
H            2.15713832640915        1.22030559559363       -0.65093307327001
H            1.94979236867023       -0.32174132695359        1.32479033836170
H            3.02072696535022        0.70578314434550        2.24281725737343
H            4.80634072991968        0.34641133909463        0.45930557373795
H            3.75080226274883       -0.78928904161809       -0.32890598429455
H            4.79765333291253       -1.06853910524157        2.52892810359512
H            4.04376231107437       -3.59488415130567        1.83060915167923
H            2.84842624602139       -2.71153978789497        0.93088269557189
H            3.37967859094338       -2.45725824965989        3.95361713264035
H            2.00342498321303       -3.27807527074381        3.22765274664562
H            2.16008082699019       -1.53224652156817        3.09939520547698
H            6.57294393603359       -1.27413300435991        0.77899701176768
H            5.64991976814073       -2.53769267067705       -0.00391980798955
H            7.07189825330309       -0.62066691490512        3.22849987983321
H            8.68234666930674       -2.73072610619199        6.56995332490174
H            8.22686209955326       -4.89588801854338        5.47398000225286
H            7.47760146399886       -6.87769448745695        3.84681154348063
H            6.58751839989295       -8.27823320191432        2.01991985740420
H            3.93533552485831       -7.62725113823234       -3.39349944859057
H            3.16934664803348       -9.19215460654002       -5.11886535499853
H            2.87976948065757      -11.50060669874241       -5.93756252323446
H            3.15871289941000      -13.89680060913931       -5.61437623094081
H            0.81088734878842      -15.34180916483661       -8.79497184376291
H            2.56592563787207      -18.46256350302266       -6.20868101845044
H            7.52537675493436       -9.44856285294460       -2.53935593687558
H            9.80474950728593      -10.28470711955994        0.92998421270361
H           11.93140306543703      -21.42517125712661        7.31162656508254
H           10.46450874339342      -23.83845490983410        7.03386538776922
H            5.82493880756002      -26.03488709154027        0.53863492108040
H            4.81900214046904      -22.09082638754547        0.96635198819032
H            5.17135643774952      -22.51766382132825       -1.49548254531604
H            1.60485187740372      -18.82207820452074       -0.86173613997258
H            6.55834617882127      -19.85271042843381       -1.20153200490932
H            5.98718289219713      -20.52506660703003       -2.70863523839837
H            6.57526078897323      -11.56719016162288       -4.60952385567242
H            8.50366755331752      -14.31668817839908       -4.14012060897430
H            8.03351010062169      -24.48635057100650       -0.79104471886832
H            2.06565059885825      -22.19454876552379        1.60455247236563
H            5.47284057526213      -26.11528432771145       -3.80547884416260
H            8.18417610990075      -17.18093622914607       -2.49788752508110
H            1.92545616622239      -11.78492815972668       -1.41993284787211
H            1.06806786338563      -23.25889034587140       -2.98214027268987
H            2.76058831823848      -22.87351783178185       -3.23454623981209
H           -0.26160731902713      -15.42815035654645       -3.53708958050282
H            0.25991621919698      -22.59841976576516       -7.00490335999172
H            5.41259647169024      -21.67307017914692       -6.67038718639110
H            5.22611662044303      -19.96129392645894        3.21797726043502
H            5.96572460397394      -12.78940426010697        0.38705594059525
H            5.72205181910794      -10.37227487352714        0.08687366679197
H            5.48691454414852       -4.80647633046505       -0.20323901642062
