73
 energy: -15.087251504373 gnorm: 0.000462667777 xtb: 6.5.0 (97a52f5)
C            1.01707313514794       -0.50656846555491        0.69604725049991
C            2.40351075249842       -0.09462831865254        0.22627717211660
C            2.90980830830395       -0.94338531055785       -0.94105598878925
C            4.30036499582202       -0.52360455183344       -1.42178447277854
C            4.84539610120563       -1.35899404633985       -2.60889957476975
C            4.49197436515292       -0.75874807831666       -3.98309922025497
C            3.00419863645793       -0.65133452659582       -4.27298178111522
C            6.36289828245113       -1.54426329225638       -2.49035307962201
N            6.90573335363882       -2.39129892377120       -3.55827682796536
C            7.51512305069090       -1.93799270563782       -4.73629857926040
C            7.85039841508229       -0.65391193937259       -5.16816983758723
C            8.44303415088153       -0.48888378091764       -6.40532187879160
C            8.78419236870799        0.79779757393090       -6.85487619876432
N            9.06384598541381        1.86204157324856       -7.22569521105241
C            8.70225076961425       -1.61425411110310       -7.21408266621505
C            8.37919059632054       -2.88279357651185       -6.80540480917738
C            7.77926532828614       -3.05248920419385       -5.55523892155845
C            7.31200173427561       -4.22074300443653       -4.85240888890998
C            7.30672914597712       -5.57858766442192       -5.17979929917298
C            6.77460663942501       -6.46989142492922       -4.28325823046211
C            6.23538575710196       -6.04920599601953       -3.04874807193168
C            5.70934627544673       -6.99945327917453       -2.15171282711758
C            5.27693860636270       -7.84555391077612       -1.38219147108844
C            4.80968204998416       -8.85231506119792       -0.52009276646464
C            4.02165137749733       -8.51403667194818        0.57788551966853
C            3.54702124070987       -9.46807890995117        1.44791611287036
C            3.84226058977766      -10.82027189381792        1.25841191828385
C            3.36631489627128      -11.83612816323025        2.14419180661403
C            3.66457815991740      -13.13943024442232        1.94227187329078
C            4.46814602786226      -13.55188030267181        0.83364238502325
C            4.79061005066413      -14.89054401131119        0.60248067777367
C            5.56865492167939      -15.25295036212404       -0.47763659387348
C            6.04590724417287      -14.30044255709632       -1.35404153418625
C            5.75259350807452      -12.94812450976053       -1.16806259456633
C            6.22941493481545      -11.93291708883905       -2.05424792721154
C            5.93122393819351      -10.63022545951778       -1.85092666437418
C            5.12813050467525      -10.20938276290772       -0.74497063343086
C            4.64038857755503      -11.19348402309797        0.15086226627251
C            4.95438365907290      -12.56795279993222       -0.06196576176892
C            6.23650815586794       -4.70422428901292       -2.72593323413346
C            6.77425114938481       -3.78434114347704       -3.62675264341254
H            0.66853825419485        0.10477028001793        1.53125403204691
H            1.00473119737246       -1.54763423472803        1.02347878377693
H            0.28473386524606       -0.41334721134290       -0.10787012524651
H            3.11848853532635       -0.15751357905636        1.05715215359113
H            2.40321600690999        0.96296920602004       -0.06873822675218
H            2.18963372828971       -0.89527987873754       -1.76390186681227
H            2.92724595564037       -1.99960266191379       -0.64570454514173
H            4.99602824903783       -0.60071806407399       -0.57744587172076
H            4.30469221634204        0.53805394783791       -1.69222057388232
H            4.38802026815562       -2.35960005590642       -2.55520905136265
H            4.97180557880068       -1.36747046662552       -4.76015565861780
H            4.96316266215655        0.22809731266669       -4.06537900278321
H            2.50442331395207       -1.61196717777593       -4.13681491983315
H            2.81308678645135       -0.32574624789627       -5.29799716759971
H            2.51915008888829        0.07186574697840       -3.61616379110857
H            6.62639673830694       -1.99283297510091       -1.52892676381697
H            6.86096289663412       -0.57315802881615       -2.52329945892232
H            7.64978434056619        0.19869221869569       -4.54673347556234
H            9.16397747147147       -1.46004466543803       -8.17425896543537
H            8.57577283226005       -3.73884779750039       -7.42630423811023
H            7.71545694714323       -5.90525280478362       -6.11957657445013
H            6.76256868846460       -7.52109503477281       -4.51506339110153
H            3.78467196025906       -7.47615929897741        0.73944211718467
H            2.94030943303914       -9.17911341753209        2.28868784724094
H            2.76004905294174      -11.54280011979801        2.98367054829202
H            3.29793093247358      -13.89110804496147        2.61964069694391
H            4.42344296752006      -15.64146767208949        1.28056270147558
H            5.80658013043948      -16.29177507872859       -0.63835258869143
H            6.65240948579160      -14.59336204790796       -2.19361713960326
H            6.83574716873237      -12.22628549649245       -2.89360807754227
H            6.30005038895152       -9.88116161519507       -2.52931918469691
H            5.83329411783680       -4.37093781751689       -1.78783701432780
