52
 energy: -10.972214301018 gnorm: 0.000994729675 xtb: 6.5.0 (97a52f5)
C            1.17206236543872        0.03786146367614        0.20060221081184
C            0.33705958383394        0.93252916445440       -0.35120164473102
C           -1.11255404774877        0.91569237819590       -0.26046879940144
C           -1.77609358310821        0.00892132425136        0.54156727423783
C           -3.15476084359140        0.04210310961335        0.59747786915223
C           -3.90776424975237       -0.88161978135406        1.42740151455618
C           -3.38978882639716       -1.76191033459820        2.29819612685125
C           -4.17204609275704       -2.67342645198466        3.12233144897824
C           -3.56049488310399       -3.34202945220645        4.18450353397576
C           -4.27640899138776       -4.20585014651184        4.98386207268852
C           -5.61699181896785       -4.42569055708517        4.73986609468151
C           -6.23947040004150       -3.77996773399906        3.69029057315012
C           -5.52777310906680       -2.91339901467660        2.88945997470394
N           -3.84148845392672        0.93395198861308       -0.11957989402275
C           -3.12220138901328        1.77538906304820       -0.86504771289754
C           -3.85747761805227        2.75605555139324       -1.64026815200513
C           -5.19331641420697        2.85288894001117       -1.60643562813284
C           -5.99681322355335        3.80875522571317       -2.35264173830404
C           -7.36813406337580        3.89452444018881       -2.10616926579265
C           -8.15625131904349        4.78997616449880       -2.79506136120782
C           -7.59488598087985        5.61792189098572       -3.74633374942630
C           -6.24092734716046        5.54608894635518       -4.00772179773519
C           -5.44847270457879        4.65299359914183       -3.31990520832587
N           -1.79203125854871        1.81615277851749       -0.97411937854625
C            2.62495898328087        0.08467219135863        0.10703474017959
C            3.37797317609778       -1.02199138401338        0.50387929168777
C            4.75360185965945       -1.00558469805804        0.43250531421054
C            5.40961611259373        0.11632417145746       -0.03263846254051
C            4.68425298707733        1.22315442219246       -0.42547976981710
C            3.30802731507849        1.21039238600758       -0.35784751434597
H            0.75865087598055       -0.79281404503562        0.74184979475551
H            0.75089663624546        1.73389067131724       -0.93365355278596
H           -1.22774277392816       -0.71242758935379        1.11419356329258
H           -4.97543714670522       -0.81387900943189        1.33502205003790
H           -2.32436544039620       -1.79659581782965        2.43127597807161
H           -2.51565598303907       -3.16948062818534        4.37870280317857
H           -3.78913007187877       -4.71024344972019        5.80240084862666
H           -6.17636921701496       -5.10174889834410        5.36582011435065
H           -7.28543538238803       -3.95470079081327        3.49687676133094
H           -6.02162322092266       -2.42836456949510        2.06634275619224
H           -3.28171610451424        3.42731506934724       -2.24809135404738
H           -5.72274353633810        2.17044718268163       -0.96664994876136
H           -7.80769208659930        3.25098032330250       -1.36320980655211
H           -9.21316859184268        4.84543989550653       -2.59011616170148
H           -8.21228649226434        6.31811881387020       -4.28512216013671
H           -5.80277947840133        6.19081423085919       -4.75235654187759
H           -4.39655591208040        4.60141654595920       -3.53829529013201
H            2.86836315188338       -1.89860474514743        0.86596700167193
H            5.31884845955268       -1.87021452416866        0.74028770514633
H            6.48597432832508        0.12906644151592       -0.08674250663586
H            5.19662075655911        2.10078261011304       -0.78504724106592
H            2.75656146496821        2.08527263785461       -0.65294277559154
