111
 energy: -13.408986428116 gnorm: 0.027607863443 xtb: 6.5.0 (97a52f5)
C            1.91139936470497        0.40974313095434       -0.21642547768170
C            3.09115404580512       -0.32498871323135        0.30734037202583
C            3.18749038647585       -0.41926605787881        1.76756898208059
C            4.40711595525446       -1.03656302153680        2.29691359135005
C            4.73066668555672       -2.43790105483047        1.84686222972226
C            3.74143530024926       -3.48373252148215        2.40900345350547
C            2.37828461856239       -3.33263194632206        1.95302605723328
C            6.10556427793661       -2.78724014256843        2.20858227079642
N            6.30183345933041       -3.00222533533737        3.53309323270370
C            7.22077394733432       -2.32089276660797        4.26134463918837
C            7.94173283897903       -1.25059415623578        3.80126217829467
C            8.73968798712854       -0.59024817145238        4.60421482389085
C            8.87179174252820       -0.93323358664622        5.88585316602020
C            8.22628786281886       -1.95642348741460        6.39461685751362
C            7.38511866921666       -2.71238189416481        5.62137377062219
C            6.61832769877889       -3.78931522857153        6.12907773174357
C            5.99959094366456       -4.82454904520328        5.55371729045405
C            6.35034726611440       -5.59663663933669        4.48877618694191
C            5.36587405086097       -6.46980031725085        3.93310955347530
C            5.19123064770516       -6.79331872056069        2.65382060603272
C            4.21395945145851       -7.54622108571264        2.20012793920100
C            3.87591256319752       -7.95396733871659        0.97881246670570
C            4.35375307930092       -7.80294741084440       -0.25205857236883
C            5.37574549090713       -7.14841456205878       -0.73443558445775
C            6.17417978056379       -6.33395523771910       -0.04921703752846
S           10.21242227494273      -12.40309960750820        1.35971808839803
O           10.68939700653811      -11.12811223399708        2.03491270293922
O            4.27590833540375      -10.42066601998231       -2.86535427107441
C            7.99260254578260       -7.41607486293443       -3.02626860103302
C           10.99404757224573       -7.86159418373177       -1.30879468220529
C           11.91984072114289       -8.45763630898505       -0.56147147274294
C           12.73699788602908       -9.48407070552229       -0.93417688430098
C           13.66418351876577      -10.05356016266171       -0.15429530101946
C           14.04111110998192       -9.81720662075871        1.10754886274208
C           13.59493097993232       -8.92107532040521        1.98635602007510
C           14.02561905037096       -8.75745127928658        3.22764806615937
C           14.15401234786690       -3.18745144799791        6.65671447048031
C           13.11252776134459       -2.50213343458242        7.08085918813550
C           11.93671727772818       -2.31400737011037        6.38981315121949
C           11.59803276462681       -2.79435531074137        5.11911216188202
C           12.35914676034241       -3.55130408416675        4.31229699266929
N           12.05414916068270       -4.02830769572956        3.12716094325976
C           10.96979094485615       -3.87399142197649        2.52923773170650
C           10.72359771811458       -4.45903430946546        1.29232867537747
C            9.91441240114738       -5.67385525357353        1.35018008093408
C           10.34898465294051       -6.66401351166268        2.26400273120742
C            8.97365690324921        1.29585623090232        0.58075550724656
C            5.95233540576464       -0.43536818662422       -1.44919317123054
C            7.26121164246265       -0.52224311731336       -2.15278291474943
C            7.13658921157898       -1.05568024515783       -3.49539940381620
C           14.71020467894668       -5.90236262754814       -0.51359400821256
C           12.19989324195470       -2.78251409691410       -3.58610884791033
C            8.35812407485341       -5.22130763456643       -1.66868862542476
C            7.37061245950725       -5.56325902417938       -2.43729787078824
C            6.50391539521510       -5.10702775875804       -3.03580489494971
C            4.45073134461290       -2.97490290132236       -1.08553150087325
C            7.56164769476039       -5.52278653719876        3.94160587049053
H           -1.04037026156981        2.89665592456058       -3.00368798057579
H           -1.90140329445764        2.03541678369818        2.28659540186648
H            0.97979792452423       -0.09398126530149        0.04666800315052
H            1.87021032538454        1.41886767097225        0.19561198684701
H            1.95019516892428        0.50277157764124       -1.30317119924494
H            3.23174200432885       -1.27979134215038       -0.17169631284451
H           -0.03553764423625        0.10559969682853        5.66240163923438
H            2.98329641754215        0.53178121359721        2.23068511845980
H            3.67688902386268       -2.41843938391809       -2.84692904632106
H            4.48988759506226       -0.94624331611862        3.36670294400035
H            3.64903980736497       -5.15341256374439        6.02109378674842
H            4.67083074386240       -2.46566226206433        0.74935481944523
H            3.76687594366173       -3.43080639441932        3.50339004105474
H            4.10495784981244       -4.48873166567357        2.16303216304023
H            2.28586888764781       -3.34859933784840        0.90590285164821
H            6.63965195740929        0.73777648015275        2.25082382997818
H            6.76509770379321       -3.20707375229236       -0.59170319225077
H            7.34682244781422        2.21060506284848        4.58478285001144
H            9.81766342392862        1.89783393065806        6.68247448037149
H           10.32921491243612       -2.00397355280120       10.71588014774655
H            9.16574766427013       -6.00848882628735        9.17336010285161
H            7.69404750579321       -9.31399540189495        6.72021741094392
H            5.98006834303357       -9.98926101883476        2.82115949563507
H            2.98097992383336       -4.23965383275840       -1.35389927180766
H            5.49249840248910       -5.25893932459696       -4.40942082976916
H            7.72016285168477       -7.39253086590556        1.57701633962267
H           11.61703318031959      -10.79151703728911        1.80874645316484
H           12.62733145763630       -9.86545642618698       -1.93577818520055
H           16.57745106844791      -10.97881415006590        7.09314499809409
H           14.78395072549948       -9.34949032853619        3.64763147320725
H           13.19955253978056       -2.04925431993536        8.05638688312642
H           11.18213616074479       -1.72262956437519        6.88481593900130
H           10.62511043477058       -2.53115771266567        4.73781622108776
H            9.88073395124066       -1.81062013656552        1.89083420438112
H           10.13983034114545        1.08206001325653        3.45656897687481
H           10.31741726556838       -3.71943378829283        0.62298421233175
H            9.70256808300727       -6.08282208731100        0.37383591152343
H            7.78776265330509       -1.33080746871912        0.93619529433607
H           11.32625920053278       -7.00232327288741        2.07114530000245
H            7.09963571718661       -5.03927742492857        1.26164956044916
H            9.39047938152951       -3.84721315213579        3.23630087174656
H            9.87524703786375        1.49422067275247        0.13651859862453
H            6.01443861553234       -0.04704973234255       -0.45069672387111
H            5.41429432614838       -1.36240588288880       -1.44759134039813
H            7.95943156427178       -1.14112579083939       -1.57230080504130
H            7.71417919283304        0.47756227524450       -2.19482126290102
H            4.75794029510217        2.57448378585741        1.02559259879644
H            8.04801515147678       -1.13308433637130       -4.01700140624756
H            4.38190119822779        1.26936017163321       -3.10819481067064
H            4.68715161226605       -1.29871638459031       -5.62884610285431
H           14.05732093195097       -6.57301855214695       -0.09698935223663
H           12.63164309649473       -2.03949084568792       -3.03105272213369
H            5.41935778902165       -3.94969621909083       -2.39825537918884
H            5.01927872648061       -4.71485416421377       -0.13169448873400
