90
 energy: -16.474733672770 gnorm: 0.000838019438 xtb: 6.5.0 (97a52f5)
C            1.29794538179038       -1.68520252975034        0.43091416743941
C            2.48179891645787       -0.79020322253908        0.09941042475686
C            3.26254475315189       -1.26490361079065       -1.12675209610264
C            4.47342280893470       -0.38486102838265       -1.44104295362920
C            5.26397219963885       -0.83672831930436       -2.69797042321000
C            4.85224772301273       -0.07831766704780       -3.97239909528336
C            3.40489068859303       -0.28785414629708       -4.38436393927795
C            6.77643866022321       -0.72131697359232       -2.47352865707043
N            7.54643013885422       -1.29062529957891       -3.58685370190780
C            8.24360696843312       -0.57424426920822       -4.57074175201166
C            8.50216185011000        0.79210539603730       -4.71488431926198
C            9.21321596924555        1.21714806982638       -5.80924235060695
C            9.67393673184034        0.30952939119266       -6.77086054256736
C            9.42711100344390       -1.03574950042487       -6.64915213976250
C            8.70609486027189       -1.48792151831109       -5.53983845481160
C            8.26257826092413       -2.80039465822713       -5.14024145393761
C            8.38510603664486       -4.06470577709643       -5.72645273135986
C            7.79067439626494       -5.13849722825042       -5.11434814036410
C            7.06522800508519       -5.00070606951116       -3.90762214666649
C            6.37208742155595       -6.15586131938768       -3.29808722855771
C            6.95234432863141       -7.44581828724206       -3.30429628784340
C            6.31631603266208       -8.52667141955042       -2.74902821860577
C            5.05737707398604       -8.34326916006277       -2.16726186834631
C            4.13035820505417       -9.24583853151701       -1.53082060537310
C            4.17916026830971      -10.62027564356046       -1.27937391493370
C            3.10617801067793      -11.21503509518719       -0.66250897412743
C            1.98228743752595      -10.46723399192366       -0.29056825124283
C            1.91690177364647       -9.11715138315293       -0.52912115482261
C            2.99956436642838       -8.49220155265777       -1.15489660392093
N            3.20510866915231       -7.16199104082246       -1.55053940685605
C            2.25754145790225       -6.04938254727310       -1.41096278589707
C            1.67581711652886       -5.56300717915541       -2.74615623778790
C            0.83068508986242       -6.65593928719892       -3.43606945564507
C            1.65900387876353       -7.70918221956784       -4.15389277642830
C            0.87625213530308       -4.26023888843299       -2.54207467433311
C            0.59383548787401       -3.49612732443752       -3.83643605858719
C           -0.15138810450394       -2.18067292702113       -3.60502504106235
C           -0.42604753636074       -1.42515955741629       -4.89573343138958
C            4.46412328363265       -7.06726943276444       -2.15804813713614
C            5.12683270415999       -5.97736602047403       -2.71632716599310
C            6.96302624975610       -3.74988390789685       -3.31981984877675
C            7.55036728178985       -2.64766253565895       -3.93623582769112
H            0.75765034612234       -1.34078486427361        1.31580515651023
H            1.61952547509445       -2.71072686016385        0.62228073479487
H            0.58432831841698       -1.71937091844543       -0.39405182632707
H            3.16163586976299       -0.73121633590327        0.95986508475199
H            2.14210205476037        0.24111673764499       -0.06454282203449
H            2.59470946439343       -1.31001139088008       -1.99297674764098
H            3.59273743691142       -2.29982617568951       -0.97296421135933
H            5.14115312755096       -0.38433462736096       -0.57081780351743
H            4.16478409046792        0.66015313242577       -1.55741915999724
H            5.03830360031519       -1.90170849089963       -2.86488835411751
H            5.51665907848628       -0.38473252684885       -4.79088347875128
H            5.05571464280940        0.98976564028376       -3.82741970678453
H            3.17818715846534       -1.34929640909227       -4.49930266771622
H            3.17653655289868        0.20010684512587       -5.33488435510729
H            2.71422562701146        0.11770175942831       -3.64350403386967
H            7.07176808290382       -1.23790077642699       -1.55612785229251
H            7.05546654221418        0.32608893993039       -2.34177407676737
H            8.14562297692971        1.48869222527359       -3.97728708907090
H            9.42080518908780        2.26771164177576       -5.93260155856539
H           10.22781416722518        0.67410097773330       -7.62064017778849
H            9.77239813680541       -1.73893533133082       -7.38667226476554
H            8.92487407865727       -4.17436723018509       -6.65064946245085
H            7.85083555439055       -6.11138751386052       -5.57054332358653
H            7.92560658390377       -7.56964799830723       -3.74668999332933
H            6.76495759868532       -9.50453565821151       -2.75576076017862
H            5.04387453901475      -11.18949738146772       -1.57235627770043
H            3.12627190022462      -12.27440123481004       -0.46448144894491
H            1.15410913646582      -10.96245032918183        0.18991130452683
H            1.05144482631491       -8.54307336955586       -0.25021405368234
H            2.77842482630119       -5.23208207160013       -0.90420871314514
H            1.44823165762200       -6.35138333197698       -0.74308670426294
H            2.51902945820567       -5.32918742124738       -3.41425062529771
H            0.14438479226787       -6.18933839575630       -4.15296200526967
H            0.17846297427596       -7.12233327499094       -2.68752972977669
H            2.28767273594649       -7.25907274835243       -4.92462900583562
H            1.03393177720812       -8.46304036131239       -4.63815745052030
H            2.32328091566554       -8.23217870250368       -3.46721167248148
H            1.42687312438115       -3.60505153762428       -1.85801610299544
H           -0.06245828445033       -4.49034848879941       -2.02639415635990
H            0.01737058819932       -4.12065806712856       -4.52811414847018
H            1.53831937458515       -3.29626167847677       -4.35700083493246
H            0.42625173134056       -1.55059266287131       -2.91662005151221
H           -1.09293816714569       -2.38557284491928       -3.07804253782431
H            0.50199485183082       -1.18607099913781       -5.41859237198431
H           -0.95355440662118       -0.48522669717650       -4.71729592572602
H           -1.03536952824604       -2.01964685599290       -5.57930769123744
H            4.66495066151339       -5.00816439273896       -2.70652218008526
H            6.43603077550647       -3.62767373042486       -2.39231260551675
