119
 energy: -24.317508959900 gnorm: 0.000714603902 xtb: 6.5.0 (97a52f5)
C            0.96021032991993        0.29630109122522        0.42574479007911
C            2.47476962093301        0.19351806841220        0.33604541082939
C            2.93722608835375       -0.72195723592212       -0.79830065052808
C            4.45768358004366       -0.84390818153803       -0.88144899823654
C            5.00154009962938       -1.72308287277747       -2.03927130641270
C            4.64484679938372       -1.12525640428060       -3.42303665679420
C            5.23192949011369       -1.90701256067261       -4.59697750068351
C            4.85932751689233       -1.31556200446250       -5.95615740822269
C            5.44526922739988       -2.10110348070835       -7.11872305369705
C            4.51987446496774       -3.17403428406853       -1.92545620387333
C            3.26468592952797       -3.71537302032657       -2.10776872431833
C            3.07664005601790       -5.09160569295907       -1.98734631183668
C            1.79275793146938       -5.64234447436273       -2.17640197968086
C            0.66303617408373       -6.07339250392671       -2.35404365107715
C           -0.65724627648424       -6.51498794811693       -2.57254042261001
C           -0.91998176310037       -7.69495851845634       -3.26352920479029
C           -2.21293604317633       -8.10635071802566       -3.49188638578050
C           -3.30012559843051       -7.34841444313044       -3.04727590996854
C           -4.65647986408403       -7.81395762567030       -3.30029813043550
C           -5.78534747686532       -7.05718114339140       -3.38140032814320
C           -5.73904404392758       -5.57401285984221       -3.36601347745426
C           -5.01911171433881       -4.86937284593776       -4.33108840617262
C           -4.98128769314151       -3.49245972469985       -4.31455369573923
C           -5.66450976366244       -2.79270901383139       -3.33949559619293
C           -6.38945780931797       -3.47376552521621       -2.38137488136650
C           -6.43007616107052       -4.85077904830503       -2.39426597339507
C           -7.10118597046504       -7.70866193791326       -3.55772485445926
C           -7.37255691856005       -8.96578706427928       -3.01595100086980
C           -8.60587086778595       -9.55683224458462       -3.18646098703606
C           -9.59499060237883       -8.90653727657197       -3.89726403977441
C           -9.34820919320780       -7.65940687772919       -4.43550413797411
C           -8.11637646679414       -7.06604353814223       -4.26652707763936
C           -3.02793049564718       -6.17667133474852       -2.33638863072008
C           -1.73570789236473       -5.76723161963205       -2.10831490727998
C            4.17242088934419       -5.90687297797833       -1.69362777801431
C            5.43560301541549       -5.37780868101833       -1.53435750661435
C            5.61042840024955       -4.00560090221529       -1.65583271167667
C            6.83774451785525       -3.20203419090196       -1.62711970229530
C            8.15979336879443       -3.58635367857089       -1.45009084692504
C            9.14836533608225       -2.62860094443611       -1.52927614683982
C            8.84550477684510       -1.28858962168000       -1.78616429102979
C            9.87745112375506       -0.33332411834388       -1.88909622330712
C           10.78435842418512        0.47747479387205       -2.00791275698527
C           11.84821294815154        1.38627229559537       -2.17774870832842
C           11.64384184750437        2.62377746965152       -2.78257784075194
C           12.68856938440801        3.49893340986234       -2.97083132255133
C           13.98698453645468        3.16876483492823       -2.57188602270391
C           15.06960183854789        4.11836611598303       -2.78797643059730
C           16.39639050013566        3.84276148968474       -2.91836711323116
C           16.90841740023757        2.45228867120423       -2.99549191706527
C           16.47247910468694        1.58077961296876       -3.99381547141989
C           16.95814319704709        0.29362680993393       -4.06526707248812
C           17.89152143371876       -0.14629256353965       -3.14740871277500
C           18.34108678682824        0.70581477627619       -2.15789499385897
C           17.85750956742547        1.99359306681055       -2.08240971114446
C           17.36953757060119        4.94776353929994       -3.05859156008595
C           17.17383316809637        6.17827317728603       -2.43013214902587
C           18.09252177211677        7.19619550805480       -2.56944719251460
C           19.22586419169579        7.00856207363018       -3.33551244455051
C           19.44050813990748        5.79640620653810       -3.96044856573885
C           18.52416314146367        4.77693673748314       -3.82256595826654
C           14.18005174555658        1.93493675879729       -1.94488622103684
C           13.13484299737736        1.06172214050405       -1.75668913007540
C            7.51347052086065       -0.91328889029218       -1.95863090094475
C            6.51958093966021       -1.86564911332376       -1.87943094279213
H            0.64021501949443        0.95164852105080        1.23897998282319
H            0.50760045556287       -0.68256547843757        0.59524217061098
H            0.53574869761226        0.69003280433712       -0.49970287764620
H            2.88617676332147       -0.17092195014026        1.28679717353878
H            2.91505309193138        1.19039582279763        0.20079241217707
H            2.53565836538440       -0.35297029769445       -1.74878978184578
H            2.49259581386311       -1.71370500573167       -0.66087814981330
H            4.83908675238474       -1.24753214620390        0.06243389798397
H            4.89886366134270        0.15431859281038       -0.96828943176669
H            4.98918680246927       -0.08692964380381       -3.46160801539450
H            3.55679784366726       -1.08129981609865       -3.52649092078244
H            4.90067806629198       -2.95125865702788       -4.54649768857345
H            6.32344690764052       -1.95223052274875       -4.50148759642875
H            5.19154711352705       -0.26976822592436       -5.99984665179373
H            3.76562851459187       -1.26914647501927       -6.04366229392850
H            6.53530827427110       -2.12890345710337       -7.06693710206303
H            5.17321576736542       -1.66957747043115       -8.08468787920539
H            5.09691405129398       -3.13565494401366       -7.11127588135321
H            2.43353535821367       -3.08595704234270       -2.36879356267006
H           -0.09225684785471       -8.28200726385723       -3.62373741758306
H           -2.39984199002698       -9.01908046785293       -4.03150886487414
H           -4.76274981770065       -8.87319463533684       -3.45715072579439
H           -4.48836146670670       -5.41917032375408       -5.08937285788080
H           -4.41695136182742       -2.96074963201485       -5.06327723170133
H           -5.63304510246470       -1.71529607421725       -3.32736565157672
H           -6.92408676000336       -2.92695806328666       -1.62173502352572
H           -6.99275406076000       -5.38647041214461       -1.64899517347460
H           -6.61330594458593       -9.46791725732806       -2.44177725570285
H           -8.80000872607083      -10.52808273709898       -2.76099598156686
H          -10.55906352947531       -9.37036755221036       -4.02961302831695
H          -10.12015123625207       -7.14880526034604       -4.98816480832691
H           -7.92325825921227       -6.09421398842910       -4.68710184796105
H           -3.84569001968942       -5.59032902934476       -1.95806109959834
H           -1.54317415315646       -4.85559840179335       -1.56834949005027
H            4.01813548125027       -6.96887444228476       -1.60618756787374
H            6.28215080451590       -6.01040862398173       -1.33281225337307
H            8.39833650805465       -4.61877864906558       -1.26423596100318
H           10.18004720089039       -2.90898267722786       -1.40105705388852
H           10.65140999729759        2.88570235826650       -3.10829218256500
H           12.51492660149134        4.44997182699180       -3.44477452176381
H           14.77244580148968        5.14890540303617       -2.87546877030036
H           15.74534186784045        1.92813027526980       -4.70763457633819
H           16.60856126823241       -0.37108697000690       -4.83845395609669
H           18.27033979632669       -1.15388794963738       -3.20465984505701
H           19.07201790950145        0.36288690219138       -1.44370926356206
H           18.20517106121892        2.66205943900777       -1.31341473117634
H           16.30310237209648        6.32346683327702       -1.81449476857732
H           17.92740650502998        8.14063061382239       -2.07668392661398
H           19.94318775969869        7.80596467729728       -3.44349771261625
H           20.32606008704338        5.64687075369147       -4.55666087630827
H           18.69025815336297        3.83226963270186       -4.31111507269777
H           15.16353080324801        1.66885643534529       -1.60166791531145
H           13.30271985253569        0.10947362553418       -1.28268439772236
H            7.26476484546089        0.11270808488787       -2.16100735514614
