24
 energy: -4.835835295854 gnorm: 0.000667963343 xtb: 6.5.0 (97a52f5)
Br          -1.77610812615254        0.06794759783136        0.02634067190183
C            0.11507072388003        0.02019436521138        0.01089219482929
C            0.83566382848459        1.03422292831163        0.62116749099742
C            2.20885290928974        1.00793773012379        0.62038028953926
C            2.91276496099636       -0.05502267611713       -0.00355308104339
C            4.30027460865677       -0.09622248418051       -0.00362232632590
P            5.29239878218262        1.13035235728558        0.74784664991346
C            6.92460586116803        0.56769066494679        0.48267873982803
C            8.09369903488701        1.16441294146111        0.89370952625842
C            9.30246710695536        0.55890414344343        0.59108581555068
C            9.32759640636520       -0.63152103446430       -0.11650959974029
C            8.15146495028313       -1.22838505969447       -0.52778747195577
C            6.93084130329230       -0.62874304204541       -0.22882273642626
S            5.32975653502228       -1.31248985512306       -0.70882784975014
C            2.14696998431885       -1.07684311994315       -0.62238891756328
C            0.77414746670113       -1.02944501258205       -0.60891340575814
H            0.30140548131555        1.84131446553135        1.09512743026146
H            2.76797655064858        1.79463359282521        1.09442617065907
H            8.05595575231428        2.09036599097794        1.44403556415160
H           10.22554257998106        1.01524718857069        0.90844991913473
H           10.27187483789471       -1.09772896476008       -0.34532627877148
H            8.16261979080925       -2.15402338878468       -1.07634263230194
H            2.66060377965221       -1.89181490153835       -1.10014236152919
H            0.19296489105489       -1.80752442729081       -1.07574380185977
