50
 energy: -10.861360786014 gnorm: 0.000169436694 xtb: 6.5.0 (97a52f5)
C            1.11151210600852        0.02431436709892       -0.21058072942928
C            0.29564863956252       -0.96214648863342        0.22354047904852
C           -1.15642079413734       -0.96561969693303        0.12538837568252
C           -1.86590163962676       -1.57270271887954        1.12678338840687
C           -3.28372219085857       -1.55773714687054        1.18004856732626
C           -3.97043341822370       -2.18836780942790        2.23452722028959
C           -5.33489891173452       -2.15823789133105        2.29738979457803
C           -6.06170731128839       -1.49648507297872        1.31318225619370
C           -5.41776572966583       -0.87482235391049        0.27599436629048
C           -4.01613296447674       -0.88622778842683        0.17611423091660
C           -3.29674527762846       -0.26759496236357       -0.92544582628138
C           -3.96842396284248        0.37772894235164       -1.97855202500755
C           -3.28904072373657        0.88643913681254       -3.05198893174111
C           -1.91001837186407        0.75303744649610       -3.12819469959650
C           -1.22486806235664        0.14164850367260       -2.11425829748818
C           -1.88343917466477       -0.34672902303233       -0.97261882086665
C            2.56167934497076        0.02992716598758       -0.09878123101427
C            3.32894260781613       -1.16197827277206       -0.25753663358227
C            2.75827269462437       -2.39357863963399       -0.67159023676002
C            3.50840559854969       -3.52262156060678       -0.79294192037366
C            4.88469508672567       -3.49687253461365       -0.52404967392707
C            5.48824631825116       -2.33391186227894       -0.16748539560690
C            4.74034237485423       -1.13212011978283       -0.04399999831425
C            5.36995756168986        0.07244923097016        0.25719241747588
C            4.65399405782997        1.26235310752938        0.35329254259359
C            5.31201459765964        2.48976421075124        0.63379041755248
C            4.60990008892802        3.64658556232872        0.74652803575129
C            3.21541639966523        3.64300924922064        0.59525140586585
C            2.55021359456706        2.48644791537248        0.32599767369720
C            3.23777438415929        1.25348341144284        0.17954593986730
H            0.64632885960742        0.91337984269776       -0.59785944677322
H            0.73791556125154       -1.76454423509923        0.78939910724285
H           -1.33052455302876       -2.04922576518301        1.92854024581114
H           -3.40399522819533       -2.69754818365053        2.99542014481272
H           -5.85003099472577       -2.64641241997202        3.10866342928217
H           -7.13806295460755       -1.47594073695942        1.36831371976261
H           -6.00294554299048       -0.37383322574842       -0.47322829106100
H           -5.03851646832278        0.47245529984732       -1.95004302111179
H           -3.82524285379863        1.37620856402617       -3.84869674163793
H           -1.38125274586285        1.12751914789253       -3.98976175622409
H           -0.16515224020235       -0.00581837935155       -2.21646979945404
H            1.71736164602464       -2.42758394989185       -0.93660342706352
H            3.04651472693728       -4.44513514495243       -1.10529450292606
H            5.46383403396017       -4.40118232469045       -0.61659101809332
H            6.54810205760905       -2.30738575849051        0.01950298490531
H            6.43502599907319        0.08670845723962        0.40296095811813
H            6.38153148507271        2.48941389882071        0.75645091191293
H            5.12136065917980        4.57155220631000        0.95764358094782
H            2.66927781741328        4.56667859127525        0.69752505106618
H            1.47956381284402        2.51008980833011        0.23465517891819
