99
 energy: -20.827477611622 gnorm: 0.000808677317 xtb: 6.5.0 (97a52f5)
C            1.25340694459458       -0.50936813007393       -1.26824154977334
C            2.47482877334800       -0.12969890707634       -0.44632064128934
C            3.11839267513530       -1.33172580210688        0.24433579307984
C            4.34542898390831       -0.95919536398250        1.07470112649443
C            4.99045154358966       -2.16319705225199        1.80672331891334
C            6.21929003575688       -1.70002716551482        2.62988190135241
C            6.92330527728847       -2.83442754546542        3.37205942235390
C            8.14655656764307       -2.36731819242583        4.16090492377004
C            8.84676659657206       -3.50626339560351        4.88538908210397
C            5.38270973197817       -3.26105543767685        0.81447756036502
C            6.27867095502845       -3.23398919477984       -0.23283676730537
C            6.48116580569943       -4.38297086895289       -0.99728227807138
C            7.40387095028777       -4.37896428480345       -2.06182704065440
C            8.21964082782938       -4.38678556692443       -2.97289156975813
C            9.17224164022518       -4.39445802639269       -4.00681760014321
C            9.63397656878027       -5.61157887028325       -4.50423800478931
C           10.57164543500880       -5.67323016913719       -5.50908656688256
C           11.09798156055444       -4.50675049505552       -6.06849471284928
C           12.07648880388026       -4.53601437581123       -7.11074416682208
C           12.57490080657398       -3.39494104674645       -7.63719406994311
C           12.14123667041728       -2.11353717700182       -7.17199453448168
C           12.63992962895436       -0.92060044055920       -7.69876966253243
C           12.19901436407950        0.29855598155795       -7.22634604215841
C           11.25542832688124        0.36620362007644       -6.22181528107605
C           10.72516436233943       -0.79702621618842       -5.66044823705769
C            9.74744835458941       -0.76696572009875       -4.61708581092382
C            9.25137998900289       -1.90836682764601       -4.08964194461570
C            9.67924296186901       -3.19374357619366       -4.54949538756592
C           10.64666804817428       -3.25567064802489       -5.58400377006437
C           11.17208324623785       -2.05219906755298       -6.14034652932749
C            5.76591424545917       -5.54320557332148       -0.68699689497939
C            4.86822435947948       -5.57652182692716        0.35881155872010
C            4.67698756521814       -4.42864477247932        1.11521513420388
C            3.80539526267893       -4.18584334903467        2.27110415460541
C            2.91569990872654       -5.03051393079547        2.92058655344103
C            2.19604651243175       -4.54466831116366        3.99164071722975
C            2.34508342227082       -3.22607268618681        4.43089828570228
C            1.59222464842975       -2.74484547330062        5.52013603999399
C            0.92791431446993       -2.32605809454883        6.45759366222416
C            0.14983635204668       -1.85527969712356        7.52988844281546
C            0.14368740997458       -0.49457136511149        7.83044056134109
C           -0.60464270755193        0.01343512752021        8.86717540364056
C           -1.39079183796226       -0.82560557667199        9.66007041442184
C           -2.18103313507372       -0.32966678077251       10.74368396456465
C           -2.93545639664719       -1.15923920711454       11.49887756446644
C           -2.97207153136202       -2.56615252256128       11.24271656738384
C           -3.74235682885955       -3.44423901899300       12.00753511416783
C           -3.75393816959519       -4.79633427605628       11.73249428759573
C           -3.00441258227069       -5.31134168849013       10.69475077975006
C           -2.21734417607181       -4.47631246107507        9.89935236572949
C           -1.42831952078246       -4.97305649667053        8.81499462124773
C           -0.67509415266578       -4.14276051798297        8.05985192950386
C           -0.63207023368214       -2.73484036693205        8.30997268567838
C           -1.40385201279575       -2.21266566801470        9.37842563176170
C           -2.19974014822900       -3.08749076662202       10.17549427237732
C            3.24342488932614       -2.38649698384253        3.77234968650183
C            3.96660832659900       -2.86681461456490        2.70174891032192
H            0.79980785273345        0.35744176766262       -1.75395310176397
H            0.48782964966424       -0.97472232084772       -0.64487250048161
H            1.51086123251139       -1.22682143090082       -2.04943621084042
H            2.20346543607212        0.61893994932099        0.31007085853885
H            3.22056398809827        0.36599835749679       -1.08208629633813
H            3.39429276459351       -2.08381343541417       -0.50457043936629
H            2.37794621880819       -1.82680313705042        0.88421788378469
H            4.07140001668531       -0.20173727689805        1.81595179374193
H            5.09661024563991       -0.48800735347027        0.43302971013386
H            5.90045341592741       -0.93371453991021        3.34356607741462
H            6.92786349070660       -1.20411660701018        1.95889875399633
H            7.22255965266412       -3.61106537092249        2.65805276388016
H            6.21483104069630       -3.32819722796802        4.04794364141126
H            7.84183692450981       -1.59287623439631        4.87719048103248
H            8.84678753285116       -1.86604973930919        3.47956812933636
H            8.17493655409350       -3.99551239793376        5.59303789320383
H            9.71980244775263       -3.16229673540191        5.44442939053334
H            9.18627963130806       -4.27010321236143        4.18346631337904
H            6.82287380922807       -2.33438514483961       -0.45621828888590
H            9.24041398812624       -6.52077449208908       -4.08214650404555
H           10.91170764954597       -6.62712688776280       -5.87394563343771
H           12.41383241726625       -5.49224721042339       -7.47188283232615
H           13.31156481907923       -3.43530284430422       -8.42091883863586
H           13.37662325752219       -0.96291993854601       -8.48253178864340
H           12.59637231954506        1.20814520987294       -7.64653904494039
H           10.91807070030794        1.32220371212026       -5.85992227095689
H            9.41051657099790        0.18923951560310       -4.25561702433207
H            8.51686066652538       -1.86460493118605       -3.30462408728283
H            5.93072153083286       -6.42513600313009       -1.28221969817096
H            4.32191124437842       -6.47245958138823        0.59560552789467
H            2.79631033692403       -6.04519838602504        2.58381508177265
H            1.49880439788604       -5.18415087434868        4.50564698904898
H            0.74353251517716        0.16667002893984        7.22829171022416
H           -0.59139002293135        1.06908175921518        9.07728477300750
H           -2.16506607530840        0.72674159434558       10.94948441365742
H           -3.52463990917002       -0.76881977157676       12.31062034421566
H           -4.33057707282300       -3.05214295734758       12.81932778051893
H           -4.35514262081676       -5.45762051868867       12.33506362681170
H           -3.02000084165190       -6.36765559975016       10.48811915656682
H           -1.44493797909343       -6.02929386823908        8.60856204252250
H           -0.08852432180307       -4.53601276826869        7.24813269146819
H            3.36795430510802       -1.36937623576817        4.09684335743686
