95
 energy: -19.382116296915 gnorm: 0.000334330680 xtb: 6.5.0 (97a52f5)
C            0.97725581447707       -0.67780464363092        0.12070791057518
C            2.49179347059487       -0.63659530683038       -0.00435533356400
C            2.96754647724006        0.25467731369733       -1.15276069633649
C            4.48942199576602        0.28596909950868       -1.28110284180550
C            5.05481598159285        1.11702440443363       -2.46363845219637
C            4.59692139802744        0.54605829596546       -3.82847392739419
C            5.18938257556403        1.27791835534890       -5.03110685519225
C            4.70273996413727        0.71819725511907       -6.36783430389443
C            5.28740249373118        1.45563098126366       -7.56200872275108
C            6.58452574093473        1.13781586764320       -2.36020369794439
C            7.49437138561242        0.10651066114356       -2.45159156415416
C            8.85695799904812        0.37123177597746       -2.30821717792098
C            9.79881240549851       -0.67096523033967       -2.39791084066889
C           10.62577907575233       -1.56940907333541       -2.47459876218868
C           11.58816156161847       -2.58842771361151       -2.56327824464717
C           11.17732671590736       -3.91861303320918       -2.63655910799226
C           12.08212397705278       -4.95097153132858       -2.72276675305538
C           13.45704480304770       -4.69892616279223       -2.73983224836328
C           14.42257513728233       -5.74825421572608       -2.82841267257163
C           15.74917713045086       -5.48230067354059       -2.84390315321861
C           16.23561979854500       -4.13996258116824       -2.77258644794528
C           17.59956016790328       -3.83818564397262       -2.78778014578180
C           18.03426844148090       -2.53036588532445       -2.71791926018778
C           17.13130597580771       -1.49067817773494       -2.63052286499056
C           15.75636503577726       -1.73793399936377       -2.61134008356330
C           14.79119099219956       -0.68789863736857       -2.52173383725662
C           13.46506232998878       -0.95497308637526       -2.50631848336601
C           12.97020536576611       -2.29413958366240       -2.57830851407906
C           13.90401694734698       -3.35748359753928       -2.66714011807722
C           15.30198098822058       -3.07763230026503       -2.68360408819853
C            9.27570430735673        1.68447907603618       -2.07280294682416
C            8.37167704085012        2.72076313910297       -1.98086828650151
C            7.01753271413186        2.44534926681818       -2.12322598981393
C            5.86095119647412        3.34255967273261       -2.10992968709680
C            5.79995343796412        4.72514949441309       -1.97572979004185
C            4.58063440121159        5.35175828870487       -2.08390348837573
C            3.40925649976372        4.63003646487350       -2.34489788482046
N            2.15482132841954        5.29898777708699       -2.49231851676746
C            2.09172441546032        6.64979489795644       -2.97749438360511
C            2.94581233339040        7.09290898690351       -3.98535428320532
C            2.87530767596720        8.38807036834636       -4.44759107548912
C            1.94857247224252        9.26426913377163       -3.91615193873803
C            1.08998993106389        8.83872264184491       -2.92089603479232
C            1.15937141202657        7.54445817768896       -2.45638691476259
C            0.93173638059269        4.61008575286119       -2.18190988529430
C            0.82855541290973        3.81406039230177       -1.04308307869360
C           -0.34369949242622        3.15300284790134       -0.75311700306826
C           -1.43307595393204        3.27155483845083       -1.59458932182561
C           -1.34769306046722        4.06012890713091       -2.72588939651500
C           -0.17788869629276        4.72542702819325       -3.01644804191467
C            3.48424266752890        3.24022828770261       -2.47174757613361
C            4.69518927823327        2.60158135314597       -2.33741223225128
H            0.64998368745459       -1.32534079632177        0.93736702604731
H            0.51504227759099       -1.04644106696741       -0.79695723510115
H            0.57050086277501        0.31711900358951        0.30805679766604
H            2.88644534165623       -1.65148645886665       -0.14668432105499
H            2.94002131120636       -0.28745736630212        0.93542636573276
H            2.58474775806660        1.27026691692942       -1.00411907934484
H            2.51667218348176       -0.09152593109467       -2.08952394497988
H            4.86632566880645       -0.73817965211280       -1.36946184944007
H            4.92202469280905        0.67375976237043       -0.35283971985479
H            3.50529331120590        0.58537205720342       -3.88569607219893
H            4.85911768032549       -0.51564688362369       -3.87593560074450
H            6.28427318115925        1.23367359898632       -4.98846976621253
H            4.94624488234248        2.34551245101581       -4.96896846665943
H            3.60570942409161        0.75819322431583       -6.39902401593787
H            4.94938897016304       -0.35040105429647       -6.42441509535489
H            5.02123228053567        2.51412537576855       -7.54071592441192
H            4.93287149614565        1.04656930339746       -8.51085208753678
H            6.37749088066576        1.39803222987768       -7.56605363673292
H            7.15730400083140       -0.89807577916585       -2.63234846524533
H           10.12163108336289       -4.13103044896978       -2.62457768619453
H           11.73713679207771       -5.96914678691681       -2.77826699417029
H           14.07318508168050       -6.76491203989003       -2.88330933889165
H           16.46275013392192       -6.28532545678024       -2.91127523742493
H           18.31200706861851       -4.64234218659765       -2.85551624087151
H           19.09111455398235       -2.31867068835900       -2.73137573869907
H           17.48050891909817       -0.47386801150772       -2.57593784112519
H           15.14054259863195        0.32869433502545       -2.46601252341545
H           12.75447537772258       -0.14990691633889       -2.43834560177563
H           10.32921893584018        1.87874495293419       -1.96450997871320
H            8.69832471296547        3.73077517233697       -1.80600927386707
H            6.70045616943921        5.28664447637470       -1.79898171128243
H            4.51417667470308        6.41923124392170       -1.96842985996388
H            3.65621588975350        6.40291500319773       -4.40626124285939
H            3.54325673607127        8.71860863705346       -5.22641698424523
H            1.89440944621094       10.27803907182196       -4.27840649566997
H            0.36557855386023        9.52104842372677       -2.50662932170253
H            0.49782723773675        7.20889118786579       -1.67681809207174
H            1.67791808048834        3.73256652204172       -0.38729666282122
H           -0.41387763362939        2.54685296795154        0.13510837670975
H           -2.34936710600642        2.75124898959574       -1.36757461726048
H           -2.19744020689963        4.15403006323038       -3.38246280399679
H           -0.10172135232036        5.33589433113362       -3.89937157626528
H            2.60028451264415        2.68010849565538       -2.71248841676739
