58
 energy: -10.978027659024 gnorm: 0.000532128145 xtb: 6.5.0 (97a52f5)
C            1.13767302649760       -0.48705030227105       -0.24850309510890
C            2.59863817930425       -0.06917734627045       -0.30307999357202
C            3.01864707106702        0.77318948451537        0.90204477661326
C            4.48611740907744        1.18868747283837        0.85179277160969
C            4.93295361193698        2.10109824370946        2.01854512057846
C            4.17289230024650        3.42533060695965        2.05261779977510
C            4.09905270374435        4.12426625031259        3.24706946827067
C            3.46947821659667        5.34401574590790        3.31973915480441
C            2.88541111487742        5.92140993671542        2.19122299844984
O            2.26850571648623        7.17100638525322        2.34354011317056
C            1.73997735278080        7.71621487767577        1.15549481539876
C            2.96222317358444        5.21461674859926        0.98957722587772
C            3.59595283515945        3.99489796451948        0.92504976216947
N            4.66055388826319        1.38381107802688        3.28634992395299
C            5.53588059109193        0.41183930986735        3.72041264410073
C            5.15125258591294       -0.58281927303302        4.62127505601844
C            6.03845456353049       -1.56208197311314        4.99547302536364
C            7.32446159343769       -1.56441233151895        4.48065763754578
C            7.72100919793169       -0.58294683104060        3.59997412425365
C            6.84530906891490        0.42325888271193        3.20112456079851
N            7.30166470672851        1.44136359695977        2.36542480519028
C            6.45512843793580        2.29868136987570        1.88261358330859
C            7.00596796950703        3.32676147441654        0.98089179742487
C            6.59977196643656        4.66563640324036        0.99635743651242
C            7.15553774858592        5.58639372736312        0.14748875973572
C            8.15808405950843        5.22706180159375       -0.75947000081046
O            8.66335405480110        6.22660651786400       -1.59803654501006
C            9.64788038573138        5.79107176713100       -2.50879762294405
C            8.58603404120174        3.89491514338129       -0.75914080257576
C            8.02873013164423        2.97611080361106        0.09361544053006
H            0.85087472748655       -1.08884817628180       -1.11348309690439
H            0.47944523350807        0.38297007707139       -0.22068017666578
H            0.92944262032701       -1.07698827087161        0.64566049963329
H            2.79656140068283        0.49338262448321       -1.22487249025755
H            3.24324929976034       -0.95564950451535       -0.36731719164295
H            2.82434771501628        0.21147866297315        1.82298095429788
H            2.37975227978948        1.66097376737002        0.97056651578809
H            4.71250574143300        1.67966263523780       -0.09895078538512
H            5.11362168384690        0.29183289834814        0.86493495088108
H            4.55602121229659        3.69975556596519        4.12397437046387
H            3.41896258565390        5.87958184290169        4.25095618420735
H            1.30346511910710        8.69002017630199        1.38119078071109
H            0.95997696928987        7.06439968018864        0.75993272646503
H            2.53468732468597        7.84926771390999        0.42013411256937
H            2.52835206470053        5.63009448892849        0.09861960913016
H            3.66289106967400        3.48773769556953       -0.02081786307228
H            3.67382995161089        1.34560832583183        3.53280022179888
H            4.14781840938854       -0.57604527028647        5.00909484259672
H            5.73409292415060       -2.32980502573611        5.68777413153546
H            8.01867697806002       -2.33418034872126        4.77535145298938
H            8.72367719777087       -0.57485153409902        3.21024874761701
H            5.85585942047004        4.98120561886719        1.70354364631411
H            6.82948891975183        6.61119703697267        0.16495951346550
H            9.95609665974238        6.63866690437610       -3.12234711454262
H            9.23871921805753        5.01647762092786       -3.15903589755932
H           10.51709402044664        5.41430252772481       -1.96787936292319
H            9.36330212943927        3.58491852122355       -1.43335391171954
H            8.37070942133232        1.95577620952117        0.08581988877530
