86
 energy: -16.588548768349 gnorm: 0.000383211994 xtb: 6.5.0 (97a52f5)
C            1.49596916547410       -1.07616660414105        1.23320431906992
C            2.54408185045675       -0.40679053815177        0.35821272398638
C            3.18071528737854       -1.37350803420596       -0.63966687152637
C            4.25341841999912       -0.71514138960376       -1.50466397631033
C            4.97043641876881       -1.64055282276873       -2.52517609929470
C            4.08287117434300       -2.11452152173323       -3.67564679397977
C            4.58416683651369       -3.06566996098792       -4.55078676405239
C            3.84225718859359       -3.50273708874844       -5.62837472282256
C            2.58656797307804       -2.98071485839321       -5.85569997351797
C            2.08315241425622       -2.01507900643222       -5.00954909187451
C            2.82881153060768       -1.57848779014983       -3.93335435850521
N            6.03945248779354       -0.82573648632727       -3.15221058115739
C            7.25331333990522       -0.65356984947124       -2.53287212752461
C            8.09993490079017        0.43785358110818       -2.84163010661275
C            7.69153030799260        1.47176390106636       -3.81582583301711
C            8.54142407155568        1.85077717230394       -4.85873767235953
C            8.16135228760266        2.80482080277534       -5.76942429367192
C            6.91401579465223        3.43310373958168       -5.68097421222853
N            6.51921529293016        4.40400517309381       -6.62154754280335
C            7.40346056849001        4.81713006988190       -7.71199654418884
C            5.19990482841827        5.03443671193462       -6.56195085630674
C            6.07196076481229        3.06446123847641       -4.62593143711765
C            6.45300276846582        2.11163156750484       -3.71494318023328
C            9.32325645978350        0.53340219413488       -2.18405258544298
C            9.69667476921044       -0.39388102660072       -1.24061358917492
C            8.87723114345407       -1.47687131009980       -0.91859393913433
C            9.30987789321811       -2.45786328783155        0.09600733253996
C            9.91576203045431       -2.04295381482570        1.28571474953614
C           10.29919911038037       -2.95185021511092        2.23969821375170
C           10.10024617690045       -4.32487702871403        2.05304739952782
N           10.47811297537519       -5.25554979026171        3.03764166749362
C           11.15862714642256       -4.83977405644750        4.26464486352748
C           10.18279348844078       -6.68186134627232        2.89648772444285
C            9.50737765819611       -4.73964211958077        0.85501906474683
C            9.12540620223820       -3.82910844658586       -0.09700216288683
C            7.63421763706129       -1.61418722680889       -1.57705072486434
N            6.83683788524267       -2.71789034377245       -1.30115581506040
C            5.62420483678024       -2.80223258987516       -1.76011589167088
C            4.88983881596389       -4.01650836388253       -1.40027964176634
C            3.58086358864226       -4.30488401535489       -1.80452793187875
C            2.94802980144100       -5.46027684135704       -1.40695045679712
C            3.59985373450055       -6.36762569461044       -0.59557663567008
C            4.89210845960538       -6.11095629333931       -0.18330289573985
C            5.52375206842090       -4.95457808702003       -0.57953929824011
H            1.04844259194000       -0.37896810854015        1.94509529497199
H            1.92788031317188       -1.89873044273289        1.80646044816393
H            0.68800267271103       -1.49519028036487        0.63036812336201
H            3.32974108753452        0.03841026232979        0.98310907112086
H            2.10128272323282        0.43795468874302       -0.18603224688470
H            2.39932824117136       -1.81098580871935       -1.27032569681751
H            3.61575908235963       -2.21877544941468       -0.09408138032455
H            5.02351423590266       -0.29395801173033       -0.85011983096803
H            3.83721828634156        0.14614566777662       -2.03486214902232
H            5.56786628373214       -3.46529356775702       -4.37345610808501
H            4.24446558267269       -4.25085171501144       -6.29204303616134
H            2.00284025743829       -3.32102723895765       -6.69564305666060
H            1.10632067574199       -1.59694586191042       -5.19164506521521
H            2.43033880094757       -0.80962008647223       -3.29567072225870
H            5.68466159187382       -0.15815667244536       -3.83197140026406
H            9.50049969838501        1.36982011561256       -4.94739587594012
H            8.83013434416872        3.07106643828124       -6.56838521608234
H            8.34059683322767        5.19856911316059       -7.31015902825583
H            6.94905432864538        5.60325399343419       -8.31197983716050
H            7.61446921998341        3.97085760395540       -8.36356827765665
H            5.09450196999008        5.59460748252017       -5.63445023823612
H            4.42020911142082        4.27612165024844       -6.60980310984606
H            5.05333207606521        5.72231264760154       -7.39249415144679
H            5.11316449583074        3.54096454623026       -4.52508481750799
H            5.80324221574433        1.85934247089860       -2.89443451527355
H            9.97081328758799        1.36296069225874       -2.41059366692385
H           10.64859050996720       -0.29966928141540       -0.74709839118360
H           10.06009431335849       -0.98998424758074        1.45661809994515
H           10.74935809728431       -2.60421125024448        3.15240839903052
H           12.04500254165853       -4.25576455249634        4.02307928706408
H           11.47382396196339       -5.70100069858007        4.85070579661200
H           10.49072718405364       -4.23545463051543        4.87618589442281
H           10.75549287649338       -7.10285455206285        2.07187396378618
H            9.12137467135979       -6.82735800466348        2.70275718269916
H           10.43674078680984       -7.22766203082117        3.80323305442155
H            9.35487262887639       -5.78928247824437        0.67739024069515
H            8.68156336383491       -4.16380272149837       -1.01837264494694
H            3.05626133675987       -3.62152158087322       -2.44340059391200
H            1.93949853827210       -5.65935503532508       -1.73153471124833
H            3.10245580609181       -7.27260383292179       -0.28652670029964
H            5.40563922331266       -6.81585730926161        0.45020601103389
H            6.52725659737137       -4.75227022491157       -0.25050184996445
