114
 energy: -23.683907008754 gnorm: 0.000494856780 xtb: 6.5.0 (97a52f5)
C           -0.16147358858785        1.53162603722663        1.11909112783438
C            1.22030056772826        1.69543427635065        0.50552016371438
C            2.33438464328697        1.65805922766938        1.55113538665329
C            3.73180121361578        1.79271144897967        0.94673600151436
C            4.87687312231589        1.88945014807298        1.99344001331802
C            4.94564383554886        3.23051503487835        2.72422486376048
C            5.94028155520789        3.39772328197315        3.67378164249941
C            6.05327969240014        4.57023040300594        4.39051187918901
C            5.16464466487988        5.60027886460463        4.16645210466503
C            4.16734452467132        5.45116298635979        3.22562765381539
C            4.05715533021288        4.27572782301288        2.51077898780303
N            4.61558107666431        0.85454365880539        3.01942796664586
C            5.56621673250611       -0.03672795776709        3.45362035842771
C            5.32346938071791       -0.85344723801142        4.58376952138674
C            4.00823240240788       -0.83253199786571        5.25476060846133
C            3.90297664338451       -0.69350298013318        6.64145802861361
C            2.67385647400811       -0.62603126346719        7.25003013464321
C            1.49842373421466       -0.69828573069059        6.50220955797739
N            0.21603139206651       -0.59204145504085        7.13141614742671
C            0.03788291267723        0.26299700756813        8.27174456308037
C           -0.83332097535224       -0.09399755134761        9.29845186704858
C           -1.01395106324077        0.73089453984788       10.38617410930311
C           -0.32899945686815        1.92785060446713       10.46932416934150
C            0.53748863445260        2.29736364522596        9.45869549928531
C            0.71926104886413        1.47426340917392        8.36988634284652
C           -0.91423369816018       -1.28915450571184        6.58262059669883
C           -2.16690416663212       -0.68220118717707        6.52791904408446
C           -3.24799280245212       -1.34786926285349        5.99485054040555
C           -3.09931604533905       -2.63199812881396        5.50733435040711
C           -1.86380158384525       -3.24846039896852        5.55545936070334
C           -0.78122460996158       -2.58470570897578        6.08798504423156
C            1.60182954645348       -0.86186732471422        5.12147341219393
C            2.82883077853002       -0.93089041829648        4.51202531216306
C            6.34582647228549       -1.67923312997204        5.03988922520197
C            7.55715602027001       -1.72635788668063        4.39288245632848
C            7.81394287612476       -0.94753843861285        3.26257997922163
C            9.12733212122277       -1.03013777279734        2.59527635979000
C            9.81221659909383       -2.24603376181800        2.50617004192267
C           11.03941117576402       -2.32444545915424        1.89619075899601
C           11.64338360745847       -1.19153870077818        1.35146423486885
N           12.92273940348953       -1.27762993125928        0.71416354675726
C           13.27821806522117       -2.45706018813423       -0.02594432549937
C           14.57567214397040       -2.96209525975433        0.01718926079206
C           14.91580050970212       -4.08798250457074       -0.69911841544044
C           13.96768108995748       -4.73038693361613       -1.47192338557754
C           12.67641320887333       -4.24204400294575       -1.52525195689961
C           12.33396640488324       -3.11651118315721       -0.80970088012150
C           13.85318355727724       -0.18703508000582        0.80564481588967
C           14.67106539513174        0.14374859184917       -0.27237946052901
C           15.56835928040497        1.18434413154450       -0.18116460049378
C           15.66615729267246        1.91443794818707        0.98760779883667
C           14.86247852719502        1.59888503680581        2.06610006613281
C           13.96504935681363        0.55821421458266        1.97731734697262
C           10.96511879535014        0.02366133138135        1.43858340844870
C            9.73595938053671        0.10012957099287        2.04363470177335
C            6.80295816434669       -0.08168439513280        2.78547617367971
N            7.04752282919394        0.69252784131934        1.66200228870179
C            6.21745998661503        1.62025744468238        1.29408836836752
C            6.61646118841288        2.41668997763501        0.13339073890067
C            6.07430985161627        3.67113846820961       -0.16490238963883
C            6.49021728167224        4.38013418330718       -1.26835332497175
C            7.46664630330630        3.86481097222078       -2.09854956695076
C            8.03369474620484        2.63829443946179       -1.81274593169026
C            7.61788843964302        1.92743447859105       -0.71030293126132
H           -0.95192106895694        1.56255823493633        0.36593206096105
H           -0.36708886709542        2.32123151795611        1.84419865404074
H           -0.24819260233796        0.58025717192935        1.64728364053943
H            1.27789987687253        2.63916204837799       -0.05286473365057
H            1.39816246218713        0.91118999158552       -0.24218566046441
H            2.26729593685959        0.72038874426572        2.11403891243027
H            2.16424467626670        2.44231365528944        2.29693706470119
H            3.76915269693458        2.65006819777447        0.27034444185002
H            3.92735693579316        0.92158284293392        0.31264356736659
H            6.63053463786009        2.58989767252421        3.84422831743897
H            6.83484539630876        4.68064730396705        5.12452391153055
H            5.24894766079751        6.51865309819161        4.72453982408566
H            3.47173125085178        6.25535130975441        3.04825498583348
H            3.28208224168430        4.18265257823033        1.77103329787176
H            3.87116239186693        1.13615377407702        3.65417876162620
H            4.80251467688839       -0.61809571691703        7.22773796188925
H            2.60281348247085       -0.51645085120516        8.31802570639509
H           -1.35988448946253       -1.02994631273202        9.23071049589945
H           -1.69047718849897        0.44212190947805       11.17404768093802
H           -0.47097341329890        2.57299756270249       11.32102782311367
H            1.07053868251195        3.23210397582410        9.52158956267082
H            1.38319503011809        1.76340362642785        7.57398333363412
H           -2.27422841380769        0.32166320437641        6.90008891768437
H           -4.21125290749955       -0.86571979602133        5.95623299101715
H           -3.94592828371316       -3.15212055706048        5.08960898450301
H           -1.74724223454063       -4.25062747523121        5.17612111932785
H            0.18160560511949       -3.06279237835077        6.13584788067104
H            0.70127617110377       -0.91823666109288        4.53559613766796
H            2.89777102414629       -1.07211491496620        3.44732776425283
H            6.16903132821119       -2.29858795971036        5.90234181335489
H            8.33598815980887       -2.36549668129437        4.77128265308775
H            9.35635611538178       -3.13418437338835        2.90815779679118
H           11.55779920236316       -3.26561708255086        1.83918482777304
H           15.30833297374913       -2.46157481382769        0.62583869827382
H           15.92323752596174       -4.46889986575601       -0.65642922288665
H           14.23505894302754       -5.61115782077049       -2.03275383920017
H           11.93635215069066       -4.74161717835002       -2.12904562751600
H           11.33248332556082       -2.72553208774563       -0.85555950055810
H           14.58631066769036       -0.42400438333983       -1.18246402616125
H           16.19535483752242        1.42950855932030       -1.02293684055346
H           16.36918971214852        2.72837851758830        1.05841451121829
H           14.93920161627322        2.16692158932021        2.97895132938219
H           13.34513748622017        0.30097383104254        2.81836461405594
H           11.41471631897233        0.90147213643855        1.00847448797389
H            9.22046862600081        1.04262393727799        2.09567101667100
H            5.35281257002039        4.10622690737725        0.49985175046039
H            6.05876142754270        5.34479403782812       -1.48125491044592
H            7.79162635816011        4.42227945351153       -2.96191527999868
H            8.80363452710350        2.23837815416800       -2.45238256492606
H            8.06408276901839        0.97575807598417       -0.48042585523830
