78
 energy: -15.339730810424 gnorm: 0.000319230786 xtb: 6.5.0 (97a52f5)
C           -0.01130435948035        0.58363036474419        0.58153560860826
C            1.34443226547303        0.85018844420324       -0.05291587962928
C            2.37727178296684        1.35781392700987        0.95356307470772
C            3.75322598488482        1.58400421538923        0.33098583969352
C            4.81426857901079        2.17580930878813        1.29908281885093
C            4.62884540403807        3.66260848674468        1.60339601510361
C            5.54907918936505        4.26925429879395        2.44239617455485
C            5.43040169697262        5.59865165012614        2.78858104397115
C            4.38031799766532        6.34501048669637        2.29798884270802
C            3.45279743363278        5.75652815431224        1.46446209273907
C            3.57332775409844        4.42517638058541        1.12209168671928
N            4.68396140447888        1.46797911895631        2.59305510842500
C            5.70798390421376        0.77931318645507        3.19422579387730
C            5.56784986018599        0.27275167722689        4.50884559587626
C            4.31401326663618        0.46598014092007        5.26717691341682
C            4.33220579256901        1.00714973709086        6.55438497210495
C            3.16579433122641        1.22505227397394        7.24252838717917
C            1.92217386660227        0.91288435873585        6.68213807528720
O            0.77990048094402        1.18502411562684        7.44375498690427
C           -0.44147959417009        0.91856220115766        6.79090736807856
C            1.90809957875355        0.35145365697311        5.40035665778173
C            3.07630856952930        0.13094145075846        4.71475139193477
C            6.64545875364371       -0.39030251041391        5.08443699293292
C            7.81993564433725       -0.56756858887517        4.39257518619894
C            7.98573912512179       -0.07048001983391        3.09997986242000
C            9.26712609276929       -0.26663850951895        2.39310400515538
C            9.97233581808935       -1.46744939181588        2.50340410031297
C           11.16308735811422       -1.65015157163044        1.84752916611684
C           11.71563506145547       -0.64321943970991        1.04788973594119
O           12.93131890845450       -0.91151580659045        0.41165474474885
C           13.42174469227188        0.13969835151423       -0.39075794425145
C           11.01068973556833        0.56093175601198        0.94147258795422
C            9.81983235419536        0.73946520108423        1.59852631048274
C            6.91718471852286        0.62691597697233        2.49320410556339
N            7.10002004258406        1.16975549123171        1.23010908353764
C            6.20199888910606        1.93247822992353        0.68832849797568
C            6.55074102403704        2.50663334429725       -0.61189062313840
C            5.84162668517939        3.54931024172520       -1.21592246165776
C            6.22167842474741        4.05325152594078       -2.43855103839978
C            7.32357118294473        3.53705633277189       -3.09132615415596
C            8.04915667490838        2.51645499230809       -2.50992707247542
C            7.66965020462203        2.01210400518567       -1.28722200429406
H           -0.74240406184007        0.22721131576215       -0.14731879045718
H           -0.41672273559051        1.48741301392122        1.03960725476395
H            0.06279331127752       -0.16997915120165        1.36750832900764
H            1.24494724480476        1.57800068747479       -0.86884962554780
H            1.72336269848424       -0.06266592082676       -0.53112392890608
H            2.46345751116343        0.63811232082451        1.77484827809627
H            2.01358847783206        2.27715746789434        1.42505773017952
H            3.66936580396121        2.21324340526942       -0.55886637257139
H            4.13300943009426        0.62405904771589       -0.03461799057172
H            6.36401476494571        3.67986917707751        2.82566720467402
H            6.15670523673535        6.05261680050675        3.44278979230361
H            4.28373885940129        7.38440192214274        2.56646261420409
H            2.63053226954342        6.33784021113316        1.08006988966486
H            2.84644629589900        3.98566672525945        0.46266570437896
H            3.92660815878627        1.84582755657599        3.15886300852065
H            5.27817837953543        1.27146986639255        6.99473738567250
H            3.18587026811928        1.65164312344569        8.22975025402170
H           -1.26139863931382        1.20475655232682        7.45099271670969
H           -0.52321071747601       -0.14661346463724        6.57054522916904
H           -0.50982171007330        1.50316801821502        5.87232484621578
H            0.97155898789692        0.08540751484131        4.94535911278422
H            3.05339375849043       -0.32191710468448        3.73896115469817
H            6.54427556524885       -0.77700301520652        6.08383790207912
H            8.64236672940494       -1.07879116269472        4.86210955401318
H            9.55949694920824       -2.26358911207371        3.09844155481549
H           11.69659967076472       -2.58019248767844        1.93359912278451
H           14.36317654296589       -0.17453837400714       -0.84335774723751
H           13.60457477053274        1.02377272324580        0.22161012166849
H           12.70941836960266        0.36791742503706       -1.18488548394949
H           11.40371052322744        1.35775271297699        0.33677402347833
H            9.28985580753540        1.67113802234072        1.50609650477093
H            5.00778743968012        3.98851763384387       -0.70380057422061
H            5.66222644686485        4.85924478810345       -2.88494430492981
H            7.62057575650123        3.93447910474594       -4.04809649542080
H            8.91457575209157        2.11642489314505       -3.01261103972573
H            8.23890950341032        1.22308051693675       -0.82837658501561
