55
 energy: -10.597936454377 gnorm: 0.000720464374 xtb: 6.5.0 (97a52f5)
C            0.20729708660151        0.66039598058303        0.23249417425759
C            1.57362313888993        0.19229335047648       -0.24347915453043
C            2.37147346815651        1.30108372531636       -0.93078413245729
C            3.74592548004605        0.84640971561897       -1.41399537336590
C            4.52519638011492        1.94416312621590       -2.07451724611582
C            5.86052702852350        1.79482568954685       -2.35150122532240
C            6.58994151321589        0.53381243079492       -1.98545439680396
C            7.32702106642822        0.63995790775588       -0.64989104408188
C            8.08315078143268       -0.63583831143251       -0.27958479670680
C            8.82990220585363       -0.51442366140490        1.03944917030734
C            6.57681826647655        2.88712667168916       -2.95248821860927
C            7.94625974110888        2.84023733971020       -3.23764029344446
C            8.59096329897433        3.91690765313620       -3.81092296766187
C            7.89599199547862        5.06548477205972       -4.11511202348860
C            6.53137077254528        5.16592131499379       -3.85173952229713
C            5.87095769688220        4.06648732943874       -3.26271046120777
C            4.47792588142517        4.14235102172772       -2.97109002053863
C            3.78951104424195        5.29529498085691       -3.27851561645587
C            4.40020582254635        6.42189632357954       -3.87379840859828
N            3.64594922041665        7.49145981049876       -4.13137064035141
C            4.29848746339047        8.51687953912334       -4.69389089050468
C            3.58791776741692        9.70010648809814       -5.00473916751051
C            4.20601848863133       10.76834802110069       -5.58090016961236
C            5.56992177349383       10.71394939655119       -5.87994928692054
C            6.29028462418518        9.59242391877457       -5.59500209796476
C            5.68891894423587        8.46391735153834       -4.99527102229434
N            6.44403319184770        7.38345606988442       -4.73011449524084
C            5.79712392485984        6.37331021031986       -4.17237053507755
O            3.81296695203515        3.08122115137804       -2.38072165319222
H           -0.35286242768736       -0.13945938933194        0.72147370224235
H           -0.39732990730365        1.02355232532400       -0.60066635454553
H            0.29804823359486        1.48149504312472        0.94600870643333
H            1.46437194293361       -0.65599041930733       -0.93200330589098
H            2.15387037341481       -0.20079999529541        0.60183408883059
H            2.48997170987866        2.15156410183797       -0.24883725513332
H            1.80224053182015        1.69856995762567       -1.77956658430085
H            3.63130974551973        0.01405021135588       -2.11661546360316
H            4.31396238013009        0.45314917485055       -0.56449103489081
H            7.29275672350880        0.27211135067376       -2.78366007139257
H            5.89301520256613       -0.31024036396553       -1.95798760355194
H            6.61509185376955        0.89261501678262        0.14474357201539
H            8.02409807432492        1.48567784824975       -0.67988438174242
H            8.78252528730151       -0.88936140738612       -1.08706315152767
H            7.37796860078626       -1.47642102231663       -0.23979900948281
H            9.56269285441813        0.29367896517683        1.00424087130974
H            9.36369353211012       -1.43246813618001        1.29459172361846
H            8.14590376362846       -0.29333041334079        1.86063238410343
H            8.51071798620470        1.95541218290415       -3.00408277700100
H            9.64642218365539        3.85868501619166       -4.02110930158164
H            8.39974846889434        5.90542549974995       -4.55973686390549
H            2.74160263527484        5.34030967034639       -3.05234842625529
H            2.53799122422359        9.73786823885568       -4.77283218672049
H            3.64443506393827       11.65962800064215       -5.80828654787449
H            6.05146938754403       11.56264109042572       -6.33754366738208
H            7.34047955609763        9.54651813508461       -5.82428954597260
