50
 energy: -10.427939690824 gnorm: 0.000767698982 xtb: 6.5.0 (97a52f5)
C            1.05120002191895       -0.33406640167961        0.17225118479812
C            0.20454246776365       -1.33256809758540       -0.15976323863679
C           -1.25152769572339       -1.19788458902877       -0.19224661919798
C           -2.01859245046485       -2.18382688080671        0.36821641992420
C           -3.43258867032724       -2.09527006839184        0.45397803227504
C           -4.18082528692837       -3.11472506299695        1.07210025497596
C           -5.53980855255696       -3.01967095231585        1.17696345179114
C           -6.20023929214261       -1.90527115859463        0.67020905633029
C           -5.49622854765884       -0.89940200537896        0.06259553682757
C           -4.09832838093241       -0.96179488174777       -0.06473459085980
C           -3.31819900426678        0.07691520377396       -0.71729031171774
C           -3.92160335156993        1.20047147537950       -1.30875381677502
C           -3.18018003273088        2.14384562555889       -1.96748618421000
C           -1.80386045488986        1.99951019699856       -2.07237824519458
C           -1.18471090987511        0.92202170298872       -1.50120273870694
C           -1.91126676357419       -0.05052078691316       -0.79417856103749
C            2.49695859399442       -0.39356189178647        0.18540161530244
C            3.20612493887829        0.76020023309707       -0.06434267152457
C            3.11796088549334        2.08282822039168       -0.39041237017447
C            4.19440608628897        2.87934194760693       -0.69160772812762
C            5.61181141509206        2.67849646188385       -0.80253852978017
C            6.53240687352188        1.65227840157415       -0.71900623296681
C            6.40609416932848        0.30066357942873       -0.45066452525375
C            5.27670370735385       -0.34276158691192       -0.16358893955496
C            4.70485895745199       -1.53432146772766        0.18980875093410
C            5.47425007561993       -2.71052569516811        0.37879711600042
C            4.88365458843558       -3.86611688964057        0.77929120378653
C            3.50297843436728       -3.90640984025489        1.03036732632406
C            2.72878435812080       -2.80045422785200        0.85286925852406
C            3.28018138579980       -1.57684838212336        0.39587772891757
H            0.61574268481053        0.62208949532248        0.40861941347206
H            0.61274948968915       -2.28905868941598       -0.43543618294107
H           -1.53044814679108       -3.03968589286257        0.79883675214497
H           -3.66567558935102       -3.97335502254003        1.46759393743638
H           -6.10191590252398       -3.80595539468824        1.65408319478015
H           -7.27236641088416       -1.83510673983761        0.75755578388125
H           -6.02996185902335       -0.04846939778131       -0.31932147049124
H           -4.98782227877967        1.32336452888847       -1.25495067205462
H           -3.66517483986470        2.99500224537468       -2.41737875751501
H           -1.22564440268442        2.73393665888002       -2.60932833327390
H           -0.12287372831367        0.80234980914059       -1.61958543415609
H            2.13000535884221        2.51270226320947       -0.41664185274477
H            3.90778583471082        3.90266986854233       -0.90051136533378
H            6.10152091982527        3.61837930562133       -1.03623041455592
H            7.55886720676053        1.94156365681633       -0.89623769251137
H           11.38576460566698       -3.81657742151150       -0.19627043287465
H            6.53569724660203       -2.66904400975336        0.20462591293862
H            5.47713586914246       -4.75448566285881        0.92169809708835
H            3.05667300202676       -4.82330262542618        1.37971594881666
H            1.68932337463610       -2.83999915763823        1.12234193533826
