89
 energy: -18.658737872107 gnorm: 0.000575204313 xtb: 6.5.0 (97a52f5)
C            1.45243127522945        3.08684020806255       -0.29700088926092
C            2.70191934767390        2.28332247558730        0.02698010358382
C            3.44630754416055        2.81772835628690        1.24976139659994
C            4.71298088241037        2.02193144367441        1.57838076410407
C            5.46523346518787        2.58137886272383        2.72631839964510
C            5.16578048180669        2.34589409277474        4.00431926978721
C            5.83663610709662        2.91459510034075        5.16526380728517
C            5.47083505405739        2.61628168469950        6.50052743619518
C            4.44847861000888        1.66619017808181        6.80824398077805
C            4.08675096051133        1.38520377546691        8.08078676382042
C            4.71184501392079        2.02868782854452        9.18915127876312
C            4.34595031274247        1.75304148498671       10.50702606025274
C            4.96621246376058        2.39255862261053       11.56277097676192
C            5.95994987541236        3.31673929198133       11.33520762029151
C            6.36506361951504        3.62901646344202       10.03049412719842
C            7.38707046110483        4.58148946539213        9.76946968098053
C            7.76226291885293        4.86864903690139        8.49759338829687
C            7.15047606836830        4.23059624283301        7.39330072106348
C            7.52276405557239        4.51698252264240        6.04846732536018
C            8.44861218610419        5.41723754364862        5.48312510319756
C            8.37079383376560        5.29587909588053        4.10131535114823
C            9.06177897316035        6.10102825578835        3.09715941601298
C            9.12160410566033        5.65820392686823        1.77766483872948
C            9.64227497198651        6.44888530145978        0.78816549146111
C           10.13679191867686        7.71908962444641        1.08118682755791
N           10.59868176364238        8.58169140628122        0.03558268814270
C            9.90476442036894        8.61002680803590       -1.22049945490919
C           10.58792493622405        8.85443242338640       -2.40967932087684
C            9.91815154751662        8.88924430261563       -3.61209641800458
C            8.55345255501685        8.67956651445116       -3.65147317783381
C            7.86174368263184        8.43219745603389       -2.48224886760109
C            8.52893740069535        8.39696665499874       -1.27896233482436
C           11.71128324791562        9.45871086478530        0.26834095179913
C           11.73485242675774       10.74512396611252       -0.26589721810653
C           12.80586990004118       11.58054353548115       -0.04136896968678
C           13.87292996018367       11.14902568773332        0.72239654973348
C           13.86367851757897        9.87763184576104        1.26235092483414
C           12.79406542697305        9.04031780089266        1.03865180815480
C           10.12170193251188        8.14766216324311        2.40921833721050
C            9.59102892023346        7.35677245858706        3.39825223357356
N            7.41824674204533        4.33571264827574        3.81180277408582
C            6.87788636245283        3.85309094485257        4.97952859172117
P            6.81946958033208        3.69045897195131        2.30706279878862
O            7.88775378349495        2.88830597410805        1.52419588603692
C            6.16404929455143        5.03358164650617        1.32210114270212
C            5.67631303649425        6.14795799024927        1.95977958901898
C            5.17828084942540        7.19888105890324        1.21071511178688
C            5.17172377142214        7.11639529037094       -0.16842015837960
C            5.66429870647625        5.99040673947220       -0.79991110162292
C            6.16549937555430        4.94294219852618       -0.04809143407497
C            6.12661558064237        3.27560225857887        7.60036332403740
C            5.73565953312834        2.97696834773235        8.93937218310433
H            0.92946727925599        2.69711512240729       -1.17303009705559
H            1.69658924940752        4.13151644192236       -0.49758211354381
H            0.74920667419274        3.07558648402684        0.53757538740972
H            3.38101966842875        2.27707567049078       -0.83582037949069
H            2.44260274168107        1.22929434647483        0.19211001134849
H            2.77866638559632        2.82125788497805        2.11953370341852
H            3.70693232839111        3.87046877213234        1.08929515574533
H            5.37058993469815        1.99354757455268        0.70011938205455
H            4.45585609529169        0.97463658097613        1.78237693967370
H            4.33261507743650        1.68970813238993        4.18820559736311
H            3.95451878489343        1.14914907720087        6.00653295648974
H            3.31291349799513        0.66299584464738        8.27695211090611
H            3.56893389538146        1.03198458690954       10.69396164842131
H            4.66807409554500        2.16586751350617       12.57338325425485
H            6.43788741272937        3.81206405702745       12.16276289102111
H            7.86094570687949        5.07501371426550       10.60040999166498
H            8.53727021075960        5.59184197546291        8.31320392024518
H            9.08809453180735        6.09022685857721        6.02583695894903
H            8.73642509120462        4.68373758109855        1.54163154847129
H            9.66574587465536        6.10221494972002       -0.23016267969160
H           11.65234903539480        9.00739352910308       -2.37572899206583
H           10.45985951046826        9.07972483928940       -4.52412670413560
H            8.02956150026925        8.70742419824082       -4.59288742332236
H            6.79778731820284        8.26574542101859       -2.51187572150951
H            7.99102767440464        8.20540270860485       -0.36709432124868
H           10.89647683067308       11.08117770480218       -0.85051067379903
H           12.81150782201885       12.57302381542480       -0.46156356599113
H           14.71117328501524       11.80345630936982        0.89743893407988
H           14.69564704303590        9.54004673065873        1.85854086328179
H           12.78541922858495        8.04584422547675        1.44942695537062
H           10.50026725770637        9.12752925689233        2.64171816979579
H            9.54829233031426        7.71655643057185        4.41137290886029
H            5.70042151284320        6.19467818224600        3.03700058032939
H            4.79764119273267        8.07856172017162        1.70308284104729
H            4.77973726039150        7.93231813185743       -0.75318755781507
H            5.66051113404284        5.92702508808910       -1.87557690304044
H            6.56501776661527        4.06019969641640       -0.52195125574444
