20
 energy: -2.848281644178 gnorm: 0.000625744530 xtb: 6.5.0 (97a52f5)
C            0.89647585654561        0.03683752499710        0.02595745734662
C            2.41707098925287        0.06803783792775        0.03947327540783
C            2.97787282473104        1.37495724144670        0.60343904911793
C            4.50656028488525        1.41293761600525        0.61972422308961
C            5.06738035148526        2.71985276239195        1.18368935073388
C            6.58798257073666        2.75105555487040        1.19720510962931
H            0.50724094326458       -0.90093034806163       -0.37873993663935
H            0.48947348835991        0.84929839541933       -0.58012852229867
H            0.48942226642240        0.15320487006202        1.03286116690671
H            2.80771935963774       -0.08662348110277       -0.97539195707418
H            2.80759868106508       -0.77641388987779        0.62330670365009
H            2.59405613103624        1.53269228961715        1.61920954646972
H            2.59398197200429        2.22221720876836        0.02141103685033
H            4.89037767113225        1.25520064422479       -0.39604553205351
H            4.89045096173169        0.56567709979345        1.20174971357956
H            4.67674426876195        2.87449419511255        2.19856160648817
H            4.67686512267265        3.56429585720833        0.59983648588697
H            6.99497450893231        1.93858913741046        1.80329094178696
H            6.97723804792548        3.68881894515981        1.60189151033808
H            6.99502369941673        2.63467053862678        0.19029877078394
