89
 energy: -17.093062939199 gnorm: 0.000604799398 xtb: 6.5.0 (97a52f5)
C            1.10961140209100        0.15697447555409        0.25077530736130
C            2.62983122608791        0.13531217758780        0.21995525339120
C            3.25575459973590        0.50005134651151        1.56712262857960
C            4.78364633490511        0.47466773802518        1.54249983007083
C            5.41674939801536        0.83930384739080        2.89030629321740
C            6.83351235437344        0.81149722750384        2.89453125560454
C            8.05035346534373        0.77475426659492        2.85800951380066
C            9.45967759950482        0.73282842618651        2.77640153898190
C           10.14442516740570       -0.34211078298524        3.32574137332533
C           11.52613895957157       -0.45711041118583        3.26657845628157
C           12.15462167294413       -1.57736367259181        3.85369252319046
C           12.70119644998322       -2.53606666967075        4.36896277091447
C           13.33019787202855       -3.64520641083516        4.98738252530159
C           12.92302504015705       -3.87417054712663        6.44751647245447
C           13.62385882333821       -5.07364120000605        7.08499706517976
C           13.21619586618941       -5.30249246873087        8.54131516209016
C           13.91991874769216       -6.49550252258689        9.16938665748182
C           12.27326310097349        0.55128250273499        2.61952961436593
C           13.69330459536361        0.48800500469886        2.51571738189813
C           14.39621888259683        1.45540458293441        1.88504795138996
C           13.75840906136353        2.58540491987877        1.29984249040432
C           14.48331427628320        3.60790532083132        0.64831792825472
C           15.96131130666057        3.55212998912065        0.51417405146660
O           16.55180675812941        2.49780622379812        0.37015633319495
C           16.72347225887441        4.83028641301555        0.54212672344760
C           17.82321567864786        4.99586075747204       -0.28862654688375
C           18.54640721651571        6.16887280447259       -0.27095481841644
C           18.18231308081588        7.19215964418799        0.58109600236174
C           17.09575850267258        7.03777669416255        1.41862712120838
C           16.37281360888428        5.86490747470198        1.40280828479690
C           13.79275444195005        4.68953125532870        0.11446673598799
C           12.41671944118151        4.81473730109032        0.19722727817892
C           11.79150750130883        5.95759783421048       -0.34752156792495
C           11.24604612534959        6.95356679183016       -0.78738995296194
C           10.61132637322749        8.13064083110407       -1.25525015222574
C           10.39839639245194        9.20109130203078       -0.17867738881547
C            9.71707429468100       10.46190569769014       -0.70969417568445
C            9.50863150580805       11.52840167055791        0.36676403262726
C            8.83316854127150       12.78147597805134       -0.16824452399697
C           11.67102478847997        3.80144197301395        0.83833475367406
C           10.25118314611035        3.86745384010570        0.94537789137320
C            9.54427839328176        2.89227730498964        1.55969568913767
C           10.18862060124334        1.75743066145191        2.13443961157601
C           11.60045140956798        1.66167293812394        2.05166582876283
C           12.34700038709356        2.68598044565302        1.39313953729477
H            0.67546827378174       -0.10398731451881       -0.71693919047847
H            0.73445979169630        1.14509718606340        0.52309965395197
H            0.71978103994273       -0.54889529699833        0.98637350162627
H            3.00210033452375        0.82336140565399       -0.55060884805343
H            2.98708420447470       -0.85596320006754       -0.08893261738433
H            2.88860397947469       -0.18482175770447        2.34100674678690
H            2.90872668181798        1.49293594810427        1.87773457671167
H            5.15272300335227        1.15872192689786        0.76884564111771
H            5.13171826141687       -0.51825996113305        1.23318233994449
H            5.04141814576106        0.15824066969383        3.66533231379251
H            5.07500389601103        1.83694064586840        3.19582298112166
H            9.58195205415691       -1.11768572804306        3.81509254008728
H           14.41915810584534       -3.51800609136039        4.92937835056860
H           13.11685743267147       -4.55056164738648        4.40412741912691
H           11.83585262248518       -4.00553250098656        6.50731571141744
H           13.13275088225434       -2.96973245639343        7.03130881860395
H           14.71065327819414       -4.93982929614207        7.02401912659909
H           13.41511523323011       -5.97641074890744        6.49831699433344
H           12.12739474483632       -5.43385763537638        8.59644758612803
H           13.42183236682464       -4.39369427418174        9.12232159812003
H           13.69924866075040       -7.41533201123512        8.62471758406969
H           13.62017970862991       -6.64890255730394       10.20841779440461
H           15.00368254089233       -6.36618462627133        9.15598523506324
H           14.20359731958202       -0.35520874214997        2.94729482668065
H           15.46520238478383        1.37775805930419        1.80562010972289
H           18.10254935203081        4.19027895480743       -0.94551745193979
H           19.39730126870345        6.28619268314386       -0.92174478219282
H           18.74787443413745        8.10947328976190        0.59504756109844
H           16.81335533551997        7.83479378214140        2.08696059972379
H           15.52913913286250        5.73851104193274        2.05908183136494
H           14.34803123311479        5.46415914311454       -0.38376805823104
H            9.64410889881971        7.86514157267492       -1.70176691226768
H           11.20080305485877        8.55436367736765       -2.07885806324037
H           11.36393308850904        9.46356640625153        0.27055314088704
H            9.80770371627380        8.77944006058041        0.64364050330339
H            8.75174340720521       10.19778181776636       -1.15821065028319
H           10.30846410312481       10.88073423328548       -1.53287991554130
H           10.47748750444683       11.78404199512237        0.81589176682277
H            8.91848595546771       11.10276882210196        1.18913096524898
H            9.42399458615292       13.23898475102801       -0.96384143147038
H            8.69017447940729       13.53494491358871        0.60949573722452
H            7.85190329803027       12.55229321514915       -0.58766957054847
H            9.74295024463285        4.71567697709257        0.52120127361263
H            8.47270530888881        2.96295969091870        1.62559192036027
