96
 energy: -17.262671998803 gnorm: 0.000490569819 xtb: 6.5.0 (97a52f5)
C            8.81616075242080       -1.27778461112148        1.77084295852965
C            9.53585531614162       -0.97344459622448        3.07531630484022
C            9.96937618306910        0.48819523155461        3.18267111415540
C           10.69680398555009        0.80766046522219        4.48811141775219
C           11.13871258927438        2.26130927367789        4.57065195465072
C           11.87790528425047        2.56078781071259        5.84919495748870
O           11.29888518734970        2.39296802958377        6.89846032191298
O           13.21037190839192        2.97631581779209        5.76654185521216
C           13.65826084941516        3.64933574028896        4.63796774065898
C           12.84159701959515        4.58118907217319        3.95721620829918
C           13.30555382557636        5.40344198982677        2.87304132202284
N           14.10582428514052        6.54064607812001        3.04410475711643
C           14.88759219829126        6.72037629471569        1.93602346070770
C           14.51008394358092        5.74518329771709        0.97772166584719
C           13.54364002513757        4.94899047079816        1.52143763588015
C           12.97880413170296        3.70243034707015        0.92360135161119
C           11.46049496431120        3.73028068199351        0.81288693747571
O           10.92722046758667        2.49161781395360        0.34921079928626
C            9.53806871762822        2.55788430133526        0.11537707910320
C           16.10127411747494        7.48996908050437        1.87138947165176
N           17.12197749171853        7.12928242490260        1.07755103712424
C           18.18043279789298        7.88540690690937        1.41205923455492
C           19.49170539700995        7.65140540526210        0.87802917284430
C           19.85986513782486        6.42115541450650        0.41034655589498
C           19.06989007771702        5.22781800166291        0.68464869984730
N           18.70388260110603        4.82883039895114        1.95778716022148
C           17.66854794961535        3.93035338976325        1.88169155952546
C           17.40467224587145        3.70998218180684        0.51884904190789
C           18.27959608352521        4.47472222700925       -0.22649435038334
C           18.24067825309142        4.65227740719346       -1.70537275787216
C           17.16370723554017        5.63884497105192       -2.14492787161960
O           15.84567736023740        5.15916389982092       -1.89064531341475
C           14.85664098355019        5.95942944560051       -2.50328536892577
C           16.82250644064783        3.54983110118750        3.00603997397357
N           15.48508192248126        3.61786753669868        2.96569200788211
C           15.03682389572158        3.44791527206493        4.22322283594931
C           16.13660316111050        3.18564172476735        5.09938126726631
C           16.07353688595836        3.03976051979123        6.57917622389010
C           15.78454409939201        4.35743618928615        7.29051195461528
O           16.79518696016913        5.34262269786745        7.07660947427463
C           16.51591401142142        6.20980411232951        5.99962304451047
C           17.25924521310881        3.29015541739177        4.33108324893306
C           17.79914825231144        8.83745619553217        2.41775715498503
C           18.68824017296359        9.82207461172622        3.10144801900742
C           19.48065395516080        9.20376323047206        4.24439832205483
O           20.33302821078091       10.14934333757376        4.88582859320170
C           21.06020065374322        9.58243595459895        5.95273993392663
C           16.50132086346336        8.55376416066480        2.72733276172282
H            8.51121699900748       -2.32415349244117        1.70530982199294
H            9.45405421013955       -1.06678508136172        0.91110076854979
H            7.91860345380663       -0.66653940557778        1.66415391757905
H           10.41590841548529       -1.62098380497972        3.18095451709025
H            8.89304894021768       -1.22453171843600        3.92896180334613
H            9.09323292058354        1.13957460136541        3.08285403214093
H           10.61285230101679        0.74388963451126        2.33212375665569
H           11.57008734479468        0.15353742508230        4.59601305741540
H           10.05386580283382        0.57132394593962        5.34399798862511
H           10.27158222289046        2.92384853603206        4.49535490603476
H           11.77420028085288        2.48700706132299        3.71104472575518
H           11.90290309512350        4.82338633873462        4.43301628998544
H           14.29904963025616        6.94861251503413        3.95742858203229
H           15.00821007320851        5.57587955707514        0.03894612815096
H           13.28409146180593        2.84395762663871        1.53030518230082
H           13.41628501829023        3.53222788779933       -0.06544804192888
H           11.14186664143023        4.52452871923219        0.12818942185070
H           11.00694843354133        3.94857496865031        1.78605783767039
H            9.18424558157259        1.57342722275299       -0.19278599018125
H            9.33058177516270        3.27582001488883       -0.67920670610948
H            9.01905323512011        2.85694926316763        1.02695137890756
H           20.18684655097516        8.47284467991131        0.83953670510925
H           20.79541215968506        6.31520173927187       -0.11797849965295
H           18.98137450710226        5.31628143769397        2.80927273497428
H           16.59891784584633        3.11427905956194        0.12579769200663
H           18.05549319226332        3.68215708817644       -2.17777347383430
H           19.22764000370001        4.97820357086911       -2.05299628948680
H           17.24354924882864        5.85196709146083       -3.21788211936619
H           17.27781037400402        6.59006934928102       -1.61228358152626
H           13.87217066047516        5.56516112897787       -2.24850793904877
H           14.97860326767694        5.93488140554347       -3.58695581708373
H           14.93590426434412        6.98731455463197       -2.14652732122972
H           17.02448157107031        2.63347372653662        6.93867387685735
H           15.30737897834381        2.29656764618838        6.82857692054542
H           15.71403925629174        4.20756818170273        8.37530242471411
H           14.82049858932345        4.76915913261801        6.96949981227672
H           17.36206938595127        6.88325523520853        5.86210944163599
H           15.62550587916308        6.79885042062685        6.22242464560724
H           16.36136243944931        5.64400945886067        5.08134506154438
H           18.27867064687662        3.22676870507748        4.67139116428740
H           18.08986566277581       10.65624895945215        3.48167513017012
H           19.37776699151476       10.26368824044461        2.37518396503869
H           20.10005463715681        8.37713355259080        3.87810908613788
H           18.80301451304388        8.78741365563905        4.99801224478800
H           21.69250945708974       10.35294950943178        6.39572795941243
H           21.68905898381834        8.77075886686334        5.58430621648502
H           20.37338267169376        9.20343627826762        6.71086390295292
H           15.90257635944836        9.02765878362960        3.48592174877465
