72
 energy: -12.138169413896 gnorm: 0.000780292829 xtb: 6.5.0 (97a52f5)
C            1.20147464028966        0.62666986724393       -0.15294802540499
C            2.55241111465029        0.00809965612594        0.17078908528234
C            3.25547332928352       -0.56161958678617       -1.06205817368412
C            4.61303264784825       -1.18492456652877       -0.74098394294469
C            5.32207443251593       -1.74777096694646       -1.96686766579037
C            6.65663425324876       -2.36986436164526       -1.64676567833959
O            7.07212496447243       -2.34543641795765       -0.50772465838704
C            7.40845350460782       -2.98474053577822       -2.73770462356099
C            6.93783288807158       -2.98020176928222       -4.06188378321444
C            7.67626477206936       -3.57252349708012       -5.11385671084761
C            8.91541016819665       -4.19678473230256       -4.88810049909675
C            9.68134486598959       -4.80447033641697       -5.97351145158804
O           10.77132614698263       -5.30598978447725       -5.79746489705396
C            9.08207518889408       -4.78739277018144       -7.35587313250285
C            9.87755825216596       -5.59561525735754       -8.37294575900722
C            9.25685937360214       -5.57341619215193       -9.76943748136043
C           10.04896094104886       -6.38703803357155      -10.79321734626991
C            9.42118139620844       -6.36121971450064      -12.17831919885049
C            9.38434858006049       -4.20540266505789       -3.56450354822269
C            8.64489486465342       -3.61033894240955       -2.51042299649778
O            9.32879757221599       -3.76039174522423       -1.31447850675340
C           10.54205018776002       -4.47195549044427       -1.64653275250366
C           10.62579582994044       -5.80240114407966       -0.83001627937445
C           11.96513734013577       -5.77676917815938       -0.07194495398645
C           12.40314993905855       -4.30140065731952       -0.01189447080814
C           11.78915636100807       -3.62172525189455       -1.24650548336241
O           10.55688772258917       -4.74996157520432       -3.06508619545974
O            6.99078447799016       -3.42461412234871       -6.31196581473218
C            5.77780629890050       -2.71356867766048       -5.97860034085730
C            4.53024173923114       -3.56093428919944       -6.38357320449980
C            3.89740780002992       -2.85829176778710       -7.59599640318319
C            4.34183532437990       -1.38589196653193       -7.51910525701258
C            5.69635968840662       -1.38020116335213       -6.78912605530196
O            5.75915677349771       -2.44001830988733       -4.55930970804460
H            0.71254332347064        1.03157838795169        0.73551856797130
H            0.52637853199228       -0.10886067013527       -0.59312023359363
H            1.30326239613826        1.44112780862464       -0.87192388531229
H            2.43406686042406       -0.78614440196367        0.91932042486307
H            3.20385385722038        0.75226232729829        0.64711139259636
H            3.38189294588151        0.22820658735080       -1.81189235118414
H            2.61190912805551       -1.30880992809323       -1.54108819214691
H            4.49157958613221       -1.98021441094054        0.00371161986431
H            5.25916939321212       -0.44245072331445       -0.25819627419504
H            5.46701721421081       -0.95681896489438       -2.70993819862452
H            4.68808645325251       -2.49647703525785       -2.45292590420422
H            8.99477053199955       -3.74866171158326       -7.69073965160087
H            8.05651207351145       -5.16716345395009       -7.30361205776249
H            9.97120694491796       -6.62999864340484       -8.02209342416923
H           10.90542172003262       -5.21667720283156       -8.41426586077532
H            9.16585899074082       -4.53660728067374      -10.11429409635078
H            8.22754724943485       -5.94786583602427       -9.71927943064554
H           10.14141485530971       -7.42217937518170      -10.43972281677070
H           11.07863057067525       -6.00912685704257      -10.83790366568230
H            8.40810727905268       -6.76622637052416      -12.15972159114885
H            9.99563596850482       -6.94562124124245      -12.89991431029352
H            9.35274666131240       -5.34175102419353      -12.56124118961412
H           10.54619862991476       -6.65694360704822       -1.50792463865586
H            9.77455675947015       -5.84827059444029       -0.14527131205747
H           12.71562157033467       -6.37132833274331       -0.60574103393336
H           11.87390921316627       -6.21711106395266        0.92878543602028
H           13.49559018621989       -4.19952954133835        0.00752597610535
H           12.02935307613503       -3.83173373917496        0.90542401592105
H           12.48843432327712       -3.60220245428196       -2.08672037504935
H           11.48449298380334       -2.59009635583961       -1.04849965705198
H            3.84011857508216       -3.60363450516048       -5.53655338717297
H            4.83666196553733       -4.58680543200387       -6.60720723808402
H            2.80444158531856       -2.95636326031456       -7.59752182892767
H            4.25371701712009       -3.31270420684606       -8.52801180939336
H            3.60491942540989       -0.79830144442921       -6.95877041907748
H            4.41471767710401       -0.92797953540193       -8.51354951710944
H            5.80195463277963       -0.52834875422606       -6.11147865017431
H            6.53328646384250       -1.34340120660463       -7.49185851936205
