53
 energy: -7.917362297174 gnorm: 0.014765561291 xtb: 6.5.0 (97a52f5)
C            2.22180360006785       -1.24945940812992        0.48724888777906
C            3.69647115996089       -1.19019788321782        0.12019441299698
C            3.95784089243839       -0.38213773152345       -1.15028950732170
C            5.44014392252553       -0.29005809823947       -1.50600683897040
C            5.69957879913454        0.53865129899494       -2.75887603886105
C            7.16744076919095        0.68691529575406       -3.04897225331575
O            7.92282544371224        1.02494029072501       -2.16838032849258
C            7.66290292915239        0.42215899172526       -4.42067595134425
C            6.90562709401085        0.76297654734334       -5.56013160468509
C            7.22187704812472        0.58131412540850       -6.89220866301309
C            8.26971668092328       -0.10354000248544       -7.48533645489000
C            9.29061809368588       -0.92071511528893       -7.05930777931486
S           10.54879756338852       -0.17310319763927       -6.33374960379202
C           11.19540936119421       -0.78443511405062       -4.81686343424759
C           10.06983628615803       -0.46331924521554       -4.01454953998262
C            8.91972758461784       -0.05132034861793       -4.59852952417272
P            6.20349956602971       -5.06529364433698       -0.68580473228819
O            4.83728652540584       -4.61996952473261       -0.96872700584919
C           10.11954098623004       -0.89662195241681       -0.17617215370083
C           10.86167311625247        0.01489943771133        0.32672092017641
C           10.50586455649823        1.20695970701725        0.75951725708098
C            9.32054363897319        1.76330744718637        0.79987332890085
C            8.03063643053270        1.31841382710744        0.45694326937830
C            7.17116531754168        1.09845324177534        1.28695541112630
C            8.07938437081747       -3.62817912547722       -1.46158108614156
C            8.54728877575516       -4.33846398885105       -0.42050375701977
C            9.57786196626189       -5.17019742153344       -0.57400271278709
C           10.15168649158926       -5.32975906822332       -1.78355148748877
C            9.65901130456299       -4.61406196881905       -2.86323033371898
C            8.62537527322623       -3.76793835114488       -2.66861698225627
H            2.04690489110986       -1.83497978380569        1.39194462569400
H            1.63367397642144       -1.70000485022404       -0.31412973320678
H            1.81932983719540       -0.24993207704189        0.65971020811986
H            4.09353052471483       -2.20468346338502       -0.00694370534349
H            4.27740138294763       -0.76043839650181        0.94680480150268
H            3.54754118145642        0.62783990259443       -1.03170477691094
H            3.40211240575988       -0.81943402223846       -1.98917813100448
H            5.85796092878566       -1.29593247551277       -1.63635266118839
H            5.99283188573315        0.14129693287749       -0.66288088333991
H            5.25933001465906        1.53398618517312       -2.64345901952890
H            5.19187707905638        0.08083502971393       -3.61432895510489
H            5.97891462527259        1.27316570531729       -5.35614329546798
H            6.52852341215989        1.00861888422338       -7.60059319906142
H           10.97406860740304        0.70300906324075       -9.31122567524879
H           12.18003951711342       -3.13927655430305       -1.07689998876713
H           17.06250664453948        2.50695013766759        3.30754298454148
H           12.57914978644815        4.26367983313398        6.75628179289872
H            5.45614500933643        1.72671797023535        1.54991517567135
H            7.08791996938896        0.38954942770110        2.89788867754551
H            4.58174655324061       -4.77746779991531        2.19101374809806
H           10.97119139797353       -6.01937200502340       -1.89987478786356
H           10.09645748481078       -4.71034638606407       -3.84212581658748
H           10.61014732607789       -3.23677028049467       -8.51452710062644
