85
 energy: -15.683407194555 gnorm: 0.000409565631 xtb: 6.5.0 (97a52f5)
C            1.45343544537941       -0.80420186840957       -1.26995942630462
C            2.65491763190756       -0.96475317156176       -0.35158499441314
C            3.24343237348303        0.37463391039542        0.09438856089104
C            4.45902136999590        0.21948872933608        1.00779823206848
C            5.05151702405531        1.55786093299280        1.44661307015445
C            6.26991779956086        1.39658468938348        2.35527927771506
C            6.89861311743494        2.72698321618228        2.81649452333177
C            6.38788351266053        3.22770002605474        4.17171198635687
C            4.88602495268507        3.49092387789678        4.23546729023712
C            4.44090404743561        4.06503910595203        5.58016993110279
C            2.93171151764033        4.29293702760567        5.66166384883071
C            2.48386496362733        4.85983930756368        7.00970796461067
C            0.98003870163419        5.07169357588911        7.09019071787909
N            8.36622898496916        2.61368507374268        2.83127951412524
C            8.96459665167322        1.69928456034700        3.71475843291220
O            8.30620717763263        1.02459133243859        4.48875571400005
C           10.42948798366753        1.57178800149335        3.67634687688231
C           11.07474505464629        0.71980738147257        4.53847032755415
C           12.46022357481871        0.58733742019070        4.51007747896010
C           13.20348118997978        1.29559798129646        3.61007682670146
C           12.59186404175701        2.17293676222053        2.69172361045439
C           13.34473373709675        2.92390554946916        1.73084056894367
C           14.80715900166138        2.74759331481036        1.57643499164589
C           15.66840677634252        3.84613250713322        1.59450051863937
C           17.02248665818498        3.68536050050129        1.42433439637569
C           17.57824910555685        2.42020087455873        1.22106183780571
C           19.03178466871834        2.24593714458800        1.02756634804951
C           19.95239349540872        3.07172456207785        1.67672728204025
C           21.30171388496244        2.90328578196990        1.49786007951086
C           21.80527242364632        1.90098180985382        0.66015411879168
O           23.19179649087721        1.79460978621561        0.53584753331408
C           23.63011988052204        0.75380595059071       -0.30924501978559
C           20.88123248296553        1.07631326449508        0.00760533605053
C           19.53179747018352        1.24634758712432        0.18904687882995
C           16.71461033701033        1.32315912294478        1.19734931179890
C           15.36123441532951        1.48319035264897        1.36764619550124
C           12.67402457729412        3.81413270162136        0.91310905147606
C           11.29690453078464        3.96788052115131        0.98062728809101
C           10.54265480714625        3.23709527318944        1.86773392261096
C           11.18453901784858        2.32664822215083        2.74289293258255
C            9.08352309063453        3.39593957263462        1.91070726546165
O            8.51903761546605        4.17884522062338        1.16365971429494
H            1.04323040508385       -1.76728194013945       -1.58092569443315
H            1.71893554171024       -0.25320641187111       -2.17366717867899
H            0.65288075189514       -0.24926364711880       -0.77815899553762
H            3.43499397533893       -1.55465641780454       -0.85054543123451
H            2.37813822780985       -1.55168640944425        0.53402550887608
H            2.47223409766367        0.96451142836371        0.60430013206589
H            3.51881901884842        0.96676381597383       -0.78664184318583
H            5.22823244798037       -0.37409882339294        0.49932185214505
H            4.18324553324724       -0.36816839680463        1.89162118250451
H            4.27951585411239        2.15333887575550        1.94452702097310
H            5.33035761023588        2.14238620476798        0.56161410274013
H            7.03475836990593        0.82010630923743        1.82204840058452
H            6.02106982585438        0.78890717174104        3.23156634599924
H            6.66264568489765        3.49063876684684        2.05966179257041
H            6.93166456481944        4.14112399569625        4.43738176205183
H            6.66660126544145        2.49787433984664        4.93846557041257
H            4.33832928930290        2.56120557498047        4.04552712140060
H            4.59500771679941        4.17357883912155        3.42840832291912
H            4.96775396168816        5.00738297938356        5.77197026019456
H            4.75480698760136        3.39304774859515        6.38790012991083
H            2.40675327721528        3.34998954905511        5.46693585319613
H            2.61652425435721        4.96608420351475        4.85540592929829
H            3.00950179009283        5.80525384387718        7.19770735533530
H            2.81354754506595        4.18730503763153        7.81253351296321
H            0.63766590786715        5.76429267505969        6.31958826994963
H            0.67445046200347        5.47772269198256        8.05673070707999
H            0.44154750343980        4.13411895065339        6.94270642660048
H           10.48938607270340        0.15554685668671        5.24373972029678
H           12.94616854887214       -0.07951523860201        5.20327509485658
H           14.27425802657300        1.19800366867506        3.60676093589324
H           15.25520587792023        4.82797900324467        1.74927040475138
H           17.66694083545652        4.54703730371118        1.42646919749157
H           19.59267378265867        3.83715676073602        2.34193893255379
H           22.00399073569527        3.54033217224921        2.00561114137408
H           24.72079103162766        0.75169080733274       -0.32565109196399
H           23.26372265293711        0.91673716323763       -1.32375617169359
H           23.28283503363693       -0.20791649296846        0.07097001353631
H           21.23050048300315        0.29968905466045       -0.64798357583179
H           18.83991558721317        0.61160703467843       -0.33672123475345
H           17.12209977106995        0.33725646681839        1.05669922597560
H           14.70731452983934        0.62904897344581        1.32580876636406
H           13.23769283184856        4.37967957968836        0.19135937421343
H           10.79571074440203        4.65891843810407        0.32508053405025
