79
 energy: -14.134146172962 gnorm: 0.000924923488 xtb: 6.5.0 (97a52f5)
C            1.48605768476022        0.35739099306043       -1.27360689106047
C            2.97360992161455        0.30932515124053       -0.96093638127039
C            3.27022765223181        0.46754703599695        0.53095755975232
C            4.76383942169100        0.42823748300656        0.85379377966980
C            5.05375900826779        0.59759116747915        2.34491150931778
C            6.54329576510389        0.54282942770626        2.67217574614381
C            6.89595225393480        0.84241676050744        4.13354817452276
C            6.29443557855638       -0.14943556520088        5.14835856921323
C            4.93442232021792        0.26657369277444        5.70850099013531
C            4.36541323153658       -0.74891724079877        6.69807445989798
C            2.99896090581629       -0.34380426091273        7.25019080339740
C            2.42563609019650       -1.36250227012073        8.23640234250520
C            1.05353064621013       -0.96812055817691        8.76072571988636
N            8.35726369548387        0.91831172289846        4.29607451688445
C            8.90281311889219        2.15907111957434        4.66430303733177
O            8.19654499447229        3.13869724278363        4.84193103912056
C           10.36032732364755        2.24368254224906        4.82992164772170
C           10.95319125515688        3.43873033834495        5.15987746786425
C           12.33306091548232        3.53534147562061        5.30382709490940
C           13.12473867060467        2.43493529314306        5.13274987041742
C           12.56929786087398        1.17896017571673        4.81691373966163
C           13.37471403042618        0.00535953465408        4.63332200902853
C           14.83723661686119        0.01395870342828        4.85133468306017
C           15.70442842492748       -0.54914978067945        3.90843092615200
C           17.06055236424550       -0.55975881671913        4.10962904318721
C           17.62508892835728       -0.01255750753283        5.26925007953759
N           19.01229549651497       -0.01869185092837        5.47363185694798
C           19.92856508969049       -0.61066680839042        4.49805604021815
C           19.61431221242870        0.58489463726601        6.66338766505563
C           16.75499015471187        0.53927969926571        6.21856408670779
C           15.39910828051575        0.54793655648083        6.01672769064901
C           12.75079205544336       -1.16876774185372        4.24431704499210
C           11.37917194717370       -1.24032935224799        4.06547462665193
C           10.57587024652676       -0.14046768000043        4.26453665340142
C           11.16506334029323        1.09143202532530        4.64137651086109
C            9.12388397956891       -0.24001801749846        4.07890023436170
O            8.61231852928201       -1.29837608454615        3.74820711329371
H            1.28675927847916        0.23462471609665       -2.34040293120902
H            1.04902588992727        1.30844976200980       -0.96489917619762
H            0.94686771119489       -0.43096735101802       -0.74579560799394
H            3.50256461938382        1.09190189123958       -1.52067800299089
H            3.40469096766995       -0.63527770334679       -1.31788992858200
H            2.75137106510532       -0.31727934393478        1.09458421185421
H            2.84065279819042        1.40932273764182        0.89325820737096
H            5.28433999496682        1.20860441940536        0.28582924338487
H            5.19297592963012       -0.51689004508581        0.50013184542325
H            4.52206339933387       -0.18133111227350        2.90238992197397
H            4.63452496354144        1.54865886247257        2.69397350145490
H            7.08312780852609        1.24878456837844        2.03116956929778
H            6.94467343943526       -0.44153844455679        2.41102558081932
H            6.51329850641366        1.84505250384867        4.37808749148397
H            6.99958443709873       -0.26338022019035        5.97995661494286
H            6.23588142863125       -1.14288687499872        4.69148120020405
H            4.21781897624591        0.42274861310000        4.89614705547744
H            5.02251005052089        1.24474075875554        6.19625962529785
H            5.07035483500644       -0.89208365686080        7.52569013486624
H            4.29014941684180       -1.73011574329811        6.21438079978109
H            2.29616486574477       -0.19917868336064        6.42084065302891
H            3.07319611978306        0.63697374305492        7.73509547198008
H            3.12654850954759       -1.49236486166815        9.07143368492808
H            2.37564547157324       -2.34638362984415        7.75171154094160
H            1.08900898256006       -0.00604379521930        9.27424702733890
H            0.65704456787691       -1.70201408069295        9.46537880707742
H            0.33317937289097       -0.87221429541618        7.94674198283430
H           10.33032358503013        4.30571393227440        5.29688518075261
H           12.77821507955181        4.48585677586088        5.54834258391107
H           14.19210731649442        2.52983285393356        5.21902758145113
H           15.28983004149382       -0.96516760172192        3.00638473903523
H           17.70361623586572       -0.99158588860782        3.36385716797958
H           19.67965780892305       -1.65767956964159        4.33965817232933
H           20.95900746083110       -0.55770501030212        4.84171080704767
H           19.85904149512045       -0.08135106570165        3.55025342910718
H           19.25902531035143        0.07955986836215        7.55967235659068
H           19.34980159743467        1.63924130786704        6.72183050987493
H           20.69941737476127        0.50838179345762        6.63816733018753
H           17.15909104430319        0.95778683537438        7.12291119043778
H           14.74551190196504        0.95029592821157        6.77162681141355
H           13.35118743256058       -2.05080224926114        4.10311279390309
H           10.91865289747608       -2.16814988722387        3.77299976106199
