84
 energy: -15.330772855887 gnorm: 0.000438310156 xtb: 6.5.0 (97a52f5)
C            1.47620224952711       -0.55754765149822        2.03809871028262
C            2.77743984594177       -0.27158658718774        1.30459124749835
C            3.25884261765473       -1.45698486774086        0.46649099507015
C            4.56133026674063       -1.17182417143827       -0.28061423694785
C            5.03409224878134       -2.35084937072496       -1.13010571823898
C            6.33103378114587       -2.05497307470982       -1.88311203723799
C            6.82008154392654       -3.20034158413800       -2.79045419110343
C            6.30402829921669       -3.12870454532065       -4.23198331116680
C            4.78735451165481       -3.20754254168604       -4.38251757275354
C            4.33859326410734       -3.28486382811579       -5.84152231869713
C            2.81895639275143       -3.34190394236388       -5.99510691823503
C            2.36649116689621       -3.42544473185457       -7.45360621915184
C            0.85352298632398       -3.47835451778136       -7.59906466322391
N            8.29079830862653       -3.26465315469441       -2.79440845234203
C            8.88592781404247       -4.47004187466854       -2.38725906041074
O            8.21514614548889       -5.41788373262327       -2.01199904513635
C           10.35235609270836       -4.55706551896781       -2.43078988019772
C           10.99480366733010       -5.70960399285070       -2.04597230508568
C           12.38304827871213       -5.79984252617386       -2.07711515866024
C           13.13463942313612       -4.73888793143792       -2.49659349965389
C           12.52588857326720       -3.53865055240982       -2.90871743972995
C           13.29442743914179       -2.41573021761089       -3.36567728381500
C           14.77650048226168       -2.47320192685638       -3.42501592664803
C           15.48507428130983       -1.71911070669954       -2.49657398455467
C           16.85324760883856       -1.79996399029105       -2.37457706769515
C           17.59981790854647       -2.65537910505828       -3.17484689101316
O           18.99882754629552       -2.68027874494108       -3.02664020135793
C           19.73354062711104       -2.35514881872717       -4.20239395272148
C           16.90757423105667       -3.47809935659885       -4.12961562275697
C           17.61637069836416       -4.44083010315022       -4.86463666394082
C           16.99619095767500       -5.19332177234284       -5.81439804870973
C           15.64551077602768       -4.99311768051337       -6.08473410603089
C           14.89638408852229       -4.07925032701212       -5.38497725255809
C           13.48116901842766       -3.87850603376271       -5.80989661333755
C           15.50460993277769       -3.34255452809900       -4.31962962748087
C           12.62465185941524       -1.24823630286362       -3.70223226359972
C           11.24314910054601       -1.16872996862183       -3.65902658898672
C           10.47725500375965       -2.24241699787393       -3.26108572309576
C           11.11425568477662       -3.44480347888368       -2.86799995824798
C            9.01380044534784       -2.14520791685364       -3.24310372975854
O            8.45676414786217       -1.12337293395194       -3.61218532568398
H            1.14600137836651        0.29512803751654        2.63514637238208
H            1.58249093104555       -1.40909454242829        2.71223927434970
H            0.67410092972114       -0.79861632989953        1.33846298325104
H            3.56144231522785        0.00802594958796        2.02055137493190
H            2.65952959355467        0.60633081502811        0.65582635591730
H            2.47885662412089       -1.74124059862361       -0.25001897151629
H            3.38797905266857       -2.33539023616748        1.11009339383980
H            5.34470228037322       -0.89528474228332        0.43507652313782
H            4.43296905398411       -0.28888991764513       -0.91817831909133
H            4.24156274889333       -2.63407502761510       -1.82973170995141
H            5.17285046202225       -3.23202360437831       -0.49216444328350
H            7.11924745748119       -1.82861608209032       -1.15573867071834
H            6.22992984334977       -1.14242509831941       -2.47982751227764
H            6.47691846143287       -4.14822151461545       -2.34863041880926
H            6.76916305240436       -3.93648631350487       -4.80834961159827
H            6.67483081254344       -2.20525499158465       -4.68856764831346
H            4.32108289185406       -2.33547739812445       -3.91083421402667
H            4.40678678420071       -4.07824943493784       -3.83555008307612
H            4.79052129323385       -4.16182821288599       -6.32022741645404
H            4.73279797614087       -2.42347598946403       -6.39388944102633
H            2.36798968414729       -2.46256148548519       -5.51967786303398
H            2.42488962893465       -4.20024747342285       -5.43782175885386
H            2.82231477664732       -4.30652432029968       -7.92422720068730
H            2.76944565832702       -2.56740621864204       -8.00759634664876
H            0.43769881555762       -4.34424412361416       -7.08125307485778
H            0.54386912436638       -3.54069556065616       -8.64438665362160
H            0.38493082316353       -2.59107952657812       -7.17013924201488
H           10.40345584822599       -6.54599611029048       -1.71559745435685
H           12.86542748179686       -6.71335492038510       -1.77035558308282
H           14.20732947822039       -4.81351240914975       -2.52223081710857
H           14.93188438057697       -1.07362049976929       -1.83576967427277
H           17.37283261195334       -1.19687681047533       -1.65138131875569
H           20.22477774555687       -1.39226263771118       -4.05729683069499
H           19.07362124620947       -2.28511472845067       -5.06800953353087
H           20.49280561971431       -3.11785609311201       -4.37943928405595
H           18.65891545233599       -4.59631179132065       -4.65083125671381
H           17.55173949950118       -5.93020950916648       -6.37115330055942
H           15.17567014363199       -5.56236263293808       -6.86873488540207
H           13.33568311077390       -4.17957947949916       -6.84799980487476
H           13.19221644186671       -2.83025968095867       -5.74075150788704
H           12.79910406968169       -4.47016435790263       -5.19975148041438
H           13.20072520742128       -0.39704408688246       -4.02154806493031
H           10.74390989272023       -0.25877870165859       -3.94398697418538
