75
 energy: -13.503921281660 gnorm: 0.000678070311 xtb: 6.5.0 (97a52f5)
C            1.26882930598753        1.46843651288630       -1.40127776061167
C            2.64066095982670        0.98295416960210       -0.95856688937244
C            3.17537172482808        1.74360889891142        0.25587611644472
C            4.55391248359632        1.26037796464371        0.70657298236967
C            5.08185537618705        2.01587931355068        1.92554155775854
C            6.45470863374749        1.52240493746876        2.38233644867027
C            7.00476569138186        2.23681170102343        3.63202986741963
C            6.64574156310199        1.55716584709694        4.95807939303042
C            5.15240276480017        1.47904516492312        5.26411433934393
C            4.86213935163759        0.93935296585669        6.66451174710330
C            3.36785925513309        0.85737984807703        6.97520588317638
C            3.07635265503300        0.33657244003751        8.38349995012781
C            1.58837939479744        0.26740007127497        8.69034216551899
N            8.46499553617489        2.39717766804679        3.53632478549873
C            9.26747243364530        1.24706034088704        3.44972320852612
O            8.78599025890259        0.12648681822668        3.42707015854181
C           10.72500444500000        1.43404604388038        3.39270343898979
C           11.56099057273300        0.34648757819187        3.32754074036442
C           12.94287581632824        0.50795248615745        3.29884982122698
C           13.49314658146744        1.75748464394064        3.32564224258185
C           12.68305354835165        2.90978414391020        3.37303762163047
C           13.23214702460294        4.23447948217837        3.40913718024332
C           14.68885174983850        4.48190873042017        3.33036752984671
C           15.32274913890282        5.31284070575245        4.25876096627034
C           16.66951240493100        5.55511913965337        4.18447889035571
C           17.45656502921713        4.98679201794609        3.17469914305991
O           18.82003577668760        5.28232107684079        3.17307215355600
C           19.55345834996479        4.68131372065465        2.12913209646133
C           16.81743157499650        4.16502919008593        2.23712725075149
C           15.46956683506935        3.92431993849868        2.31284599188559
C           12.36471766007434        5.30625344083447        3.52538267644823
C           10.99084341124140        5.12905812114628        3.57706509393874
C           10.43278475774543        3.87345778281748        3.52179182621796
C           11.27701073442666        2.74018828516576        3.42290699156568
C            8.97612312408592        3.70505684233881        3.58024783326675
O            8.23844454885962        4.67376933187311        3.66731242245490
H            0.89809468096952        0.91584920984288       -2.26717392964738
H            1.29306909001948        2.52545763771888       -1.67211924356661
H            0.53415669628393        1.35763030118822       -0.60172145546132
H            3.35764756886094        1.07106616446533       -1.78563237313879
H            2.60495048565740       -0.08990820545003       -0.72705686490641
H            2.46502333790310        1.65501873080420        1.08682837104106
H            3.21684407000157        2.81596879384139        0.02982657241143
H            5.26665370894089        1.35252003748900       -0.12169020954352
H            4.51240100195711        0.18742436508944        0.92945055073059
H            4.35725293821829        1.93767473395105        2.74200991247671
H            5.13432954858377        3.08751197757721        1.69881811811101
H            7.17061391129564        1.65669549900846        1.56328770062138
H            6.43542053488733        0.44279866935466        2.56382730667087
H            6.59010404058171        3.25632525631205        3.64527360727612
H            7.15474928107615        2.08960112773107        5.76945938690200
H            7.07952628472430        0.55195386826377        4.96303840078504
H            4.65287334673440        0.84400060233850        4.52417044255439
H            4.70097444046546        2.47206624192941        5.15374927135941
H            5.35861087883335        1.56991501864954        7.41170238001790
H            5.31785788962741       -0.05136358063226        6.77933969103907
H            2.87236105055711        0.21723872907501        6.23548023939483
H            2.91145908545729        1.84625469097609        6.84752023161297
H            3.58350011178841        0.97594302727012        9.11799292797203
H            3.53390869823330       -0.65397297861859        8.50551571182678
H            1.12330602459531        1.25140772859890        8.61099580652044
H            1.39423748487350       -0.10763127456739        9.69735324129876
H            1.07154122483234       -0.39022338580686        7.98952731963651
H           11.12845475759404       -0.63891558245053        3.30880496887522
H           13.57970619024503       -0.36057350297680        3.25989605938460
H           14.56250473290923        1.86764344724129        3.33031508517199
H           14.73777705109934        5.75391305798505        5.04736672166124
H           17.15080265189279        6.19091971563163        4.90631047168454
H           20.60016171434219        4.97354938981202        2.22385823202383
H           19.17862302961115        5.02424065077411        1.16371427359435
H           19.48404557771433        3.59492905753242        2.20073564829860
H           17.38839098902397        3.71966266851470        1.44304646915048
H           14.99076860884863        3.31235106664706        1.56767965422946
H           12.77343755461087        6.30153202340541        3.55544052793249
H           10.33734925288624        5.98041765675431        3.65918290938449
