71
 energy: -12.900112399577 gnorm: 0.000958162436 xtb: 6.5.0 (97a52f5)
C            1.13336646410253        2.03554566454549       -0.48056433728102
C            2.54329452555510        1.47194314679804       -0.39245528181855
C            3.07408343760927        1.42466554073965        1.04111314785153
C            4.48206289988349        0.83748191345847        1.14013999084295
C            5.00713566020650        0.78469380583160        2.57442550792793
C            6.39660701518491        0.15552146604841        2.67587702270478
C            6.94959026386955        0.05407840213042        4.10994213416272
C            6.58647801253352       -1.24378404278139        4.84095381897273
C            5.09428954298416       -1.46101052041812        5.07925341141369
C            4.80624671237205       -2.65510465470741        5.98895226040608
C            3.31313320773038       -2.87026581543921        6.23538848928837
C            3.02346295826925       -4.04964217358300        7.16501282403854
C            1.53677661342009       -4.25544439928555        7.41006517486509
N            8.41149025607271        0.23152292188145        4.11913013236369
C            9.20644115329763       -0.66960051741350        3.39024038473043
O            8.71979934071422       -1.57221556157022        2.72997064467296
C           10.66656289627525       -0.49668661604686        3.45238364591969
C           11.49541025937959       -1.34172644115300        2.75652509956279
C           12.87970039550433       -1.20379449781550        2.82493515181041
C           13.43874446369263       -0.21869481799526        3.58659247257629
C           12.63429108452372        0.68374229470643        4.31281674523832
C           13.19289600999460        1.72071071070601        5.12745549252591
C           14.65853286100110        1.92335049678413        5.23023594175473
C           15.29745114105778        1.87067792490951        6.46942847893161
C           16.65774135678990        2.06300439602978        6.56954588018662
C           17.40698314188010        2.31625144683125        5.43759057235574
C           16.79112907847355        2.37868892344593        4.20322412596027
C           15.43106507718886        2.18756175511232        4.09888596328239
C           12.33788111230369        2.53922003545908        5.83833796101340
C           10.95939765028286        2.38834065360593        5.76531778411338
C           10.39174030276340        1.41061884084549        4.98456087608646
C           11.22732373677702        0.53604767440245        4.24666513596138
C            8.93137189140397        1.26165629187315        4.92170569711669
O            8.20062861558846        2.00814731565943        5.55305179755730
H            0.76687895531209        2.06488092099112       -1.50865172706752
H            1.08976996408396        3.05233230847323       -0.08723488365165
H            0.43180721176776        1.43513036877248        0.10086759429900
H            3.22743998765830        2.06557795135832       -1.01268777650562
H            2.57341899925373        0.46216745349810       -0.82307943845490
H            2.38816311164210        0.84113957476063        1.66738840283110
H            3.06413495197876        2.43360385752479        1.47140166543782
H            5.17052507051664        1.41927410480938        0.51606083373688
H            4.48960721260095       -0.17087286192817        0.70956802296492
H            4.29425934047261        0.23853053834379        3.19953469830230
H            5.03046654078232        1.79726025550390        2.99510103937886
H            7.09764888857093        0.74645661065491        2.07519407179301
H            6.40294975086527       -0.83893147262914        2.21760924210641
H            6.54053566468406        0.89809682134112        4.68590223172760
H            7.11105326228497       -1.25495795116566        5.80319663362423
H            7.00243884457901       -2.08861139326094        4.28238188691654
H            4.58044130954764       -1.60670948976139        4.12259558069836
H            4.65596470307170       -0.55580495895487        5.51599012225326
H            5.32050554467918       -2.51894096310678        6.94786788513773
H            5.24431863030843       -3.56259055068639        5.55644313795339
H            2.79949381863760       -3.02020734390410        5.27804074187076
H            2.87441494142991       -1.95639774370944        6.65392661498027
H            3.54544296489651       -3.89549847191497        8.11877405676943
H            3.46670312042540       -4.96134168532592        6.74287797483130
H            1.08602964373781       -3.37135978677844        7.86395125636380
H            1.34374076488863       -5.10052678639750        8.07391892161515
H            1.00556695831311       -4.44383172879838        6.47571225855103
H           11.05607175419245       -2.12235978581273        2.15955157309148
H           13.51100997461099       -1.88277530015425        2.27533543713177
H           14.50852863630835       -0.12985616456720        3.64712178121506
H           14.71132199372862        1.66929313137995        7.34965679131963
H           17.13835936535396        2.01632982873912        7.53330390019121
H           18.47116109701814        2.46669864748872        5.51754083717705
H           17.37550527003676        2.58046933255635        3.32021984233722
H           14.94664297048566        2.24997597985361        3.13951029009992
H           12.75787033318447        3.31724586544561        6.45248701670333
H           10.31256930932139        3.04137932385440        6.32541733515931
