96
 energy: -18.471202309746 gnorm: 0.000610832116 xtb: 6.5.0 (97a52f5)
C            1.06264978511162        0.70096776346178        0.37239293091331
C            2.56934551768630        0.64224116117565        0.17456557963062
C            2.97929763933713       -0.26268740331575       -0.98817466208726
C            4.49343384026456       -0.33601513061487       -1.18494752331738
C            4.90025697547381       -1.26757322185005       -2.32640349463509
C            6.41476471669537       -1.37358329865416       -2.49255759504523
C            6.90578983574591       -2.29035879464966       -3.64560385695370
C            6.48191920388368       -1.73855498112759       -5.02890202613611
C            6.99766895844971       -2.56614356343573       -6.20455098727254
C            6.55891211630954       -2.01120793372363       -7.55872298382201
C            7.07224380295647       -2.83699011060032       -8.73790786982771
C            6.63725150925979       -2.27795586044799      -10.09356108229247
C            7.15562348883104       -3.09934686749699      -11.26375825863970
C            8.42999117117249       -2.42598061574854       -3.54636096090507
C            9.42017150559386       -1.47499067406504       -3.69075445819612
C           10.74153793502302       -1.85315051055979       -3.53332470791487
C           11.07150910497737       -3.16568979849757       -3.23406001754770
C           10.08813208067776       -4.12335874102517       -3.08848656560257
C            8.76029803001195       -3.74910524122473       -3.24396333503445
C            7.53328779711011       -4.55272062307921       -3.18480114487949
C            7.36209628562834       -5.91320800332835       -2.96516542419694
C            6.09334573851644       -6.44586438394008       -3.03025116124957
C            4.98374028892923       -5.64870287940573       -3.33531865417057
C            3.62839410097532       -6.23899627275481       -3.42661888389091
C            3.13606739007599       -7.06316439067906       -2.41527071271037
C            1.86961280061817       -7.59338841398251       -2.49189102864858
C            1.04837365128274       -7.33015727112141       -3.58785517775719
C           -0.31550328414067       -7.89825740729011       -3.66805973088929
C           -0.80694538267812       -8.45516100996364       -4.83499223925154
C           -2.08648675413037       -8.98831128610460       -4.87646201648385
C           -2.57419948918513       -9.61000982549384       -6.13215310396428
C           -1.68583781468282      -10.32454819891725       -6.93166086605760
C           -2.12546990123159      -10.90197811665034       -8.09313670268337
C           -3.44972758382595      -10.74995099513107       -8.42455201337075
C           -4.26196767194060      -10.03337829031475       -7.57880778809599
N           -3.86587162355525       -9.46453964546415       -6.45194303139382
N           -2.90930212914217       -8.96889224289088       -3.81947800438776
C           -2.44793151121212       -8.42253832556823       -2.68668684793407
C           -3.35257955934782       -8.37698011944879       -1.51162100551798
C           -3.30914824267582       -7.27760733404018       -0.65806296849983
C           -4.14240259484682       -7.22276053199653        0.42743412262835
C           -5.00273598185756       -8.27411747185670        0.62995406518768
C           -4.98536520708048       -9.32007918026791       -0.26134225471251
N           -4.19214440595166       -9.40126076310001       -1.31694890225843
C           -1.16877532508014       -7.89810012092773       -2.57933454194449
C            1.54383341803876       -6.51222289897054       -4.60286830978581
C            2.80600358493233       -5.97280282528564       -4.52105007287399
C            5.17089004538569       -4.28222926456558       -3.55647309943906
C            6.43205926824333       -3.73613546648781       -3.45751282912076
H            0.78316789518452        1.34922819077542        1.20588272770918
H            0.65259592680792       -0.29007890594508        0.57536759390221
H            0.56196465996561        1.07951029604944       -0.52059144695359
H            3.05733740300352        0.29307033491815        1.09426655923479
H            2.96870732407707        1.65127515384214        0.00694127262898
H            2.50363479289170        0.08561155650389       -1.91300180610031
H            2.58099676818852       -1.27167357922155       -0.82596212257703
H            4.96894035482777       -0.66755188087696       -0.25388908868071
H            4.89268011033680        0.66902423014761       -1.36725944200680
H            4.44007851792325       -0.92355143076601       -3.25939580727309
H            4.47842024746560       -2.26140607358051       -2.14168555729873
H            6.85335381520948       -1.73810401267517       -1.55773075965616
H            6.83663179812925       -0.37420988831392       -2.63958692111840
H            6.83276412185006       -0.70600953309345       -5.12222917512967
H            5.39039678772896       -1.68637450859318       -5.07563711354893
H            6.65680247677947       -3.60346255325651       -6.10329095172023
H            8.09198927385006       -2.62195133105132       -6.16532452164062
H            6.90045107466310       -0.97377585923638       -7.65870609001947
H            5.46417609683025       -1.95598920564891       -7.59622949773530
H            6.72825472118709       -3.87375077659013       -8.63896678341878
H            8.16671791076654       -2.89502747146946       -8.69749867845515
H            6.97753157855548       -1.23766204297622      -10.18227114842306
H            5.54114287800233       -2.22169857655738      -10.12748639008316
H            8.24645479712269       -3.13731078224334      -11.26636660925607
H            6.83880756674582       -2.68920195445462      -12.22527820226951
H            6.79785886958454       -4.12927108390632      -11.21197590361906
H            9.15715916989530       -0.45762278536129       -3.92222055640400
H           11.52222696963789       -1.11843179940576       -3.64408468178700
H           12.10649044129237       -3.44213708479226       -3.11549915853949
H           10.33503664161733       -5.14592375401207       -2.86317398895969
H            8.21562236959731       -6.53384280940955       -2.75625516347117
H            5.94470770831625       -7.49955305121748       -2.86851020475187
H            3.75820687207013       -7.26905504028157       -1.56123275779335
H            1.50236304820399       -8.22971496786298       -1.70516487091787
H           -0.18853131131274       -8.47212852379046       -5.71362043022730
H           -0.66132146716292      -10.43833064663835       -6.62260759770393
H           -1.45462465293686      -11.46116112621406       -8.72524092940543
H           -3.84378654658566      -11.18662372076409       -9.32785489056009
H           -5.30424599342021       -9.91427834167160       -7.83313877423499
H           -2.63600386040360       -6.46442496704551       -0.86722629816337
H           -4.12747273054081       -6.37899497039098        1.09842556127661
H           -5.68019363039362       -8.27641377066007        1.46838018437453
H           -5.66221856585831      -10.14691916562959       -0.10827406496558
H           -0.83331318075505       -7.48565430914246       -1.64548774626340
H            0.91701225301911       -6.29337134396850       -5.45018615729013
H            3.17660730087835       -5.34121853072584       -5.31018614999475
H            4.33063427240913       -3.66369022141176       -3.81262325762991
