26
 energy: -3.736703608109 gnorm: 0.000108348825 xtb: 6.5.0 (97a52f5)
C            0.99511059126922        0.00149183635413        0.03424214581532
C            2.51580087262636       -0.03032771894809        0.01843634779317
C            3.07466734819622       -1.30901505468573       -0.60832551830717
C            4.60302790093867       -1.34864209573075       -0.62745753038700
C            5.16005527287034       -2.62725768442789       -1.25414113951983
C            6.68841628071000       -2.66687426994882       -1.27327102878776
C            7.24729392731513       -3.94556639505929       -1.90001699011373
C            8.76798738198610       -3.97736607105287       -1.91582601059550
H            0.60742512302888        0.91923046810775        0.48351023111867
H            0.58826062078316       -0.83875230726079        0.60098772184331
H            0.58805786918809       -0.06631051413824       -0.97692188025383
H            2.90720156471900        0.07416055871852        1.03957614122816
H            2.90689562829510        0.84079063224337       -0.52472887560419
H            2.69048368737275       -1.41659205269737       -1.63049329492175
H            2.69023655802610       -2.18285310341389       -0.06739445238299
H            4.98751482569889       -1.24146311134260        0.39461478058818
H            4.98780163120056       -0.47513555376991       -1.16864207255588
H            4.77556908398792       -2.73444395250952       -2.27621301063104
H            4.77528530634143       -3.50076784536955       -0.71295960963559
H            7.07259748861102       -2.55928293718521       -0.25110369122315
H            7.07284293906164       -1.79303743810342       -1.81420721198481
H            6.85589964643751       -4.05004888307092       -2.92115917171668
H            6.85621408616616       -4.81667569356887       -1.35682833629489
H            9.17481987666716       -3.13707925656360       -2.48252072346617
H            9.15567935480579       -4.89507421591907       -2.36514970041845
H            9.17503513369678       -3.90960734065737       -0.90465711958641
