80
 energy: -14.702457098720 gnorm: 0.000240763466 xtb: 6.5.0 (97a52f5)
C            0.93043835950245        0.63609045167808        0.41905528320316
C            2.41532011487586        0.44627697222808        0.15078899033248
C            2.95246638584187        1.40401097024966       -0.91373090350050
C            4.44508647856432        1.21967158230102       -1.18737606968606
C            4.97861457314082        2.17261953427759       -2.25630058658852
C            6.47044463710699        1.98877583528191       -2.53073123972007
C            6.99807697427768        2.92402035991324       -3.60988210486153
C            8.46935208876424        2.72513192601490       -3.85323980599832
O            8.84093876334702        1.70736333270081       -4.38941767896564
O            9.26261882504683        3.76364565058127       -3.41010599768524
C           10.64500864510264        3.70873727231960       -3.56421458999566
C           11.34589496393534        2.63154159466841       -4.07415787190267
C           12.71934934892364        2.64861762850496       -4.20371058976779
C           13.47915214482057        3.75225051839380       -3.83267711100580
C           14.92932150248458        3.78163106101326       -3.97659162196219
C           15.64327154754771        2.69734132249097       -4.46823380839921
C           17.02274917771847        2.73746762107580       -4.60595714168197
C           17.71806721678275        3.86193333704725       -4.26239002005725
C           17.05492548422009        4.99192451801634       -3.76678759618760
C           17.78955548316809        6.16451326100679       -3.40465018534877
O           19.18523805659357        6.24935304969999       -3.57155909775752
C           19.65920981065803        6.22130666227974       -4.86805690584273
O           18.96364162607630        6.19828899648524       -5.85755539973406
C           21.15437342411400        6.21142934716149       -5.00943316509474
C           21.66154977294129        4.87868523655906       -5.54364409252715
C           23.17823343492389        4.83969462176362       -5.72284121312359
C           23.67827877247660        3.50423074045315       -6.27260856139493
C           25.19516464117159        3.46178283404370       -6.45558094826114
C           25.69391018517311        2.12645857414045       -7.01007569056807
C           27.20306961002737        2.09107983601846       -7.19362058501731
C           17.09619197697219        7.23536656671348       -2.86454565873670
C           15.72673301124996        7.20031996796526       -2.70353641170175
C           14.97129908378613        6.09017591897752       -3.06598503995151
C           13.52245845767719        6.05451528419789       -2.90798082875006
C           12.80939823900519        7.12738106663700       -2.39015105287298
C           11.42954614329605        7.08577216377114       -2.25338656552978
C           10.73115359781135        5.97444686015093       -2.63293892456393
C           11.39313023829252        4.85959226826315       -3.16244357263818
C           12.80388066862798        4.88700594391454       -3.30137663505171
C           15.64653434853039        4.95725586829538       -3.60434849370175
H            0.55969491905901       -0.05427949576042        1.17958604107058
H            0.34249588386370        0.47434707636788       -0.48592503086311
H            0.71844115530022        1.64947154551247        0.76398469398827
H            2.61363764333681       -0.58793889562762       -0.15951517596867
H            2.98661415008305        0.57902357645923        1.07877419860965
H            2.75964754815496        2.43928750008884       -0.60816488337326
H            2.38886308055486        1.27199000734994       -1.84498853951664
H            4.63849627479077        0.18349085814688       -1.48932528639093
H            5.00969941467600        1.35634017867119       -0.25747083190577
H            4.78507212157741        3.20909609256779       -1.95562024596352
H            4.41432074603889        2.03493823197450       -3.18619040604203
H            6.66941172800952        0.95049825803939       -2.82164322344467
H            7.03953656702570        2.13993127227590       -1.60577433911655
H            6.82112157409545        3.96630575024394       -3.32797881515169
H            6.45729735643720        2.76556114727043       -4.54754699255380
H           10.79556493255519        1.76253234150252       -4.37884568556364
H           13.20370311648070        1.78005555467757       -4.61018980802962
H           15.12778421841284        1.79755644252785       -4.74870763542256
H           17.54813519649719        1.87748427408036       -4.98808016252242
H           18.78780004567464        3.89500164383131       -4.36952423159585
H           21.60735085422483        6.42876217658081       -4.03745300417659
H           21.45416698466446        7.02593868245683       -5.67533912898711
H           21.16999160211410        4.66123265926709       -6.49937636181452
H           21.34780352965529        4.07127859484026       -4.87157509754071
H           23.66779327963015        5.05080769152083       -4.76480641385834
H           23.49104035225133        5.65239588308520       -6.38896377226715
H           23.18650603822914        3.29392970377345       -7.22979846089827
H           23.36492879920981        2.69169128991736       -5.60639990029486
H           25.68740602217689        3.66963494843730       -5.49808376842429
H           25.50842924691677        4.27594707795221       -7.11989340789956
H           25.19269332993190        1.92122846389672       -7.96499075242817
H           25.37560152121672        1.31539286526175       -6.34221855967479
H           27.53474432904680        2.86960187440391       -7.88262234050958
H           27.54517184553922        1.13302680795705       -7.59054378672538
H           27.71943016406405        2.25768852976224       -6.24682400910966
H           17.65451478268475        8.11053123693167       -2.58329058603570
H           15.24115061281531        8.06404444139468       -2.28845686570929
H           13.32599591647026        8.01848367746423       -2.08522970492404
H           10.90608028141285        7.93594989490596       -1.84751493282069
H            9.66029502054474        5.93784358274991       -2.53223329354099
