130
 energy: -22.858151430701 gnorm: 0.000178273012 xtb: 6.5.0 (97a52f5)
C           -0.07737328443340       -1.03776617404914       -1.38664499787695
C            1.41948239405932       -0.90678319763508       -1.15170321645079
C            2.18394017729681       -0.50046285148604       -2.41270217449166
C            3.68654605045160       -0.34471385277420       -2.17857388482723
C            4.44466776355047        0.09111483960817       -3.43213152972725
C            5.93768649065870        0.30410241383087       -3.18202669753280
C            6.68203199871799        0.79901788167783       -4.42148869527618
C            8.09458554078075        1.34087571757083       -4.16800709297100
C            9.12016296453895        0.27707283404738       -3.73910607696232
C            9.15327513448554       -0.03169446215107       -2.24271875318735
C           10.10903613345354       -1.17543236173456       -1.90369788029794
C           10.09500828615688       -1.55453795936312       -0.42333686868227
C           11.00621006111936       -2.74057928495955       -0.10610589928124
C           10.97119940993422       -3.14994176600976        1.36705604747475
C           11.86633194273763       -4.34228259227292        1.66747852563321
N            8.53569183404840        2.08220367484597       -5.36408179614407
C            9.03814285136414        1.37980922809222       -6.47467063554506
O            9.17846385339637        0.16711707573409       -6.47017726644426
C            9.38362424698849        2.15632053295959       -7.67195176981416
C            9.97865777005144        1.54366603586109       -8.75316745816205
C           10.26943962008427        2.24862139077173       -9.90566414163788
C            9.95417395658935        3.59746075517761      -10.03546201261822
C           10.22811580324184        4.34401243652964      -11.25478055663757
C           10.92217625728359        3.78852520062006      -12.32518839328047
C           11.12821067385284        4.48953810910119      -13.49824134726993
C           10.63620064347839        5.76588089946855      -13.66247011453461
C            9.92527208854633        6.37451588545015      -12.60278708843228
C            9.37180059849422        7.66536347858527      -12.76597634137982
C            8.71353231224795        8.25531555444926      -11.70930677613954
C            8.58013296975566        7.60621134770748      -10.49691927626283
C            9.08001329290161        6.32332861537003      -10.29729772431687
C            8.91741523024883        5.61672591298331       -9.03544363516046
C            8.35273891370158        6.21962684990653       -7.91586881013667
C            8.15148736461715        5.52135244102225       -6.74063469306603
C            8.48816205412501        4.18956128598560       -6.63571949128362
C            9.06959741143188        3.53309732079056       -7.74461529222405
C            9.32039534670700        4.25375594731875       -8.94172740444595
C            8.23783837157642        3.45566064111608       -5.39097328540728
O            7.76631237990105        4.02292212604047       -4.41747526213151
C            9.74908707306149        5.67981743619291      -11.37745094015983
C            9.45243921152791        8.34663479095717      -14.06317270422701
O            8.85324564419497        9.39489477434679      -14.24359521174258
N           10.22023932852687        7.73963430321242      -15.07294916308788
C           10.22838681563587        8.33472483864671      -16.41965852558764
C            8.87629838380938        8.09209838494551      -17.09511800429875
C            8.50925278628088        6.61120752717861      -17.12664932396624
C            7.16482909732283        6.32363813305078      -17.79095246109303
C            6.82400631526675        4.83326149298812      -17.79988101167079
C            5.48360878519570        4.52344082079207      -18.46545829581001
C            5.15415728366614        3.02948396335894      -18.47486191782746
C            3.82255888420473        2.72218794897730      -19.14188417381619
C           10.63956802936611        9.81015027729602      -16.38512636131200
C           10.86524921149386       10.43491147965566      -17.76027101198153
C           11.23962840546013       11.91492193790819      -17.68246520245310
C           11.40517141941985       12.56369693649774      -19.05643572538780
C           11.72052807869652       14.05750588577809      -18.97726688326652
C           11.86493899029301       14.71393142992421      -20.35123547629982
C           12.15973021696590       16.20341226886871      -20.26458702677774
C           10.83295538662430        6.48224678345749      -14.92726472647622
O           11.48687398191231        5.98383066948046      -15.83057076446341
H           -0.61138267303786       -1.32706935920892       -0.47902713374433
H           -0.29287133206796       -1.78890545116887       -2.14837347642101
H           -0.50582948433871       -0.09582011250179       -1.73335071381219
H            1.82681233043449       -1.85179992906468       -0.76942537867130
H            1.61353050733230       -0.17264041865997       -0.35883238032242
H            1.77427545394182        0.43926250724182       -2.80247548280585
H            2.00836949538276       -1.23792518146870       -3.20511595909539
H            4.10328286026983       -1.28691397742016       -1.80299014522327
H            3.85795539989746        0.38279221198265       -1.37602085573954
H            4.00330853565494        1.01667840716230       -3.82100520406205
H            4.30360304522459       -0.64901684813855       -4.22880508611880
H            6.37979239919534       -0.63183486383514       -2.82376224817207
H            6.06737864811329        1.02501761140290       -2.36604997839967
H            6.09633443492263        1.59900115115383       -4.88931879573583
H            6.73240394791881        0.00829451139981       -5.17720270128093
H            8.03724628438374        2.08981491351848       -3.36332184716614
H           10.11637058172670        0.60642928703209       -4.05596324487890
H            8.93491294089253       -0.63865727027807       -4.30994015319129
H            8.15171381791612       -0.28363204132582       -1.88290193172155
H            9.43480613524390        0.86817804319239       -1.68285585413573
H           11.12806278401164       -0.91060329332002       -2.21006461975245
H            9.85074261511235       -2.05502666766002       -2.50570390060082
H            9.06895427793382       -1.78833619477311       -0.11467080517844
H           10.38581671719195       -0.68906772960233        0.18391558988914
H           12.03597854568591       -2.50303247892363       -0.39904229228370
H           10.72351791940442       -3.59688252687564       -0.73038729099985
H            9.93594628440257       -3.37362129657716        1.65600123755273
H           11.26080939576711       -2.29281566092938        1.98877091833569
H           11.57035720230945       -5.21476276652681        1.08243215091602
H           11.83151965865416       -4.62641936757099        2.72133277052073
H           12.90697596702643       -4.12679445532531        1.41931363044323
H           10.20904292953216        0.49422762262403       -8.68614028169107
H           10.72703200300393        1.72562007788360      -10.72511902885075
H           11.31803015142625        2.79276950580802      -12.24624687465321
H           11.66829883502749        4.03835338159290      -14.31284318136306
H            8.29318098465212        9.23644820046737      -11.84927584757216
H            8.05153257712944        8.10335847536915       -9.70456315787248
H            8.06843878054037        7.25514402629762       -7.95249853448217
H            7.71215387853895        6.00926434524873       -5.88752249265670
H           10.99493591788581        7.78602930732056      -16.98783974730122
H            8.87643269649251        8.49415969311237      -18.11338969184647
H            8.10765201416302        8.65157893590615      -16.55211170594258
H            8.50147584274204        6.21787818372141      -16.10330687963743
H            9.30089641108724        6.04984951959312      -17.63718021935546
H            7.16942098341761        6.70889522487909      -18.81752577563892
H            6.37228507297489        6.88169080006679      -17.27835696654318
H            6.82103890007855        4.45136097607228      -16.77179715656150
H            7.62249122167917        4.27781841905184      -18.30648185808447
H            5.48540286975520        4.90665159186037      -19.49296725674188
H            4.68335645079580        5.07438931878953      -17.95686917338097
H            5.15618467235667        2.65179280024133      -17.44403649628536
H            5.96301026951123        2.48378932383995      -18.97810138636357
H            3.00039631879784        3.22794281186883      -18.63281274760241
H            3.60111588926224        1.65277104300180      -19.14167674243198
H            3.81439626416098        3.05901929834791      -20.17986834481711
H           11.54629096554247        9.91441500157249      -15.77903257724085
H            9.87050443953572       10.37368008247691      -15.84839258806937
H            9.96288029565046       10.32660499216020      -18.37213125956796
H           11.64438333206370        9.88110498385742      -18.29722309624425
H           12.16204949739264       12.03438741021026      -17.10176568894412
H           10.47314417169659       12.45549274785946      -17.11414885915213
H           10.49212967790711       12.41326662622532      -19.64502825000602
H           12.19390208277948       12.04730440768017      -19.61647961280788
H           12.63813574285484       14.21058400735984      -18.39658871511036
H           10.93476655363514       14.56852910882397      -18.40785226075366
H           10.94853871560129       14.54420538790641      -20.93148103109349
H           12.65660954344261       14.20375523918969      -20.91520177784908
H           11.36355985467948       16.73294739361318      -19.73852852467899
H           12.26109588284447       16.65958393217188      -21.25163233699138
H           13.08605237611062       16.39123102969830      -19.71907601305509
