103
 energy: -18.481001958699 gnorm: 0.000957965427 xtb: 6.5.0 (97a52f5)
C            0.84647064735254        0.48931963699725        0.24838295149496
C            2.35603890001771        0.31839980109404        0.31741014003018
C            2.87358838467142       -0.76449206494970       -0.63096066876036
C            4.39002223507769       -0.94856159368257       -0.56288404854053
C            4.90155837504810       -2.03462433994191       -1.50921352792810
C            6.41456608620720       -2.23849998248001       -1.42941784163668
C            6.91367789178077       -3.33843065227506       -2.36641199255339
C            8.41866354083791       -3.57554842807278       -2.25895224384664
C            9.00171244909215       -4.65654733465102       -3.20959614440494
C            8.87264882744193       -4.24021319346271       -4.69634116142826
C            9.46983643622436       -5.25761490810966       -5.66734709478310
C            9.27024071813649       -4.87610910675500       -7.13311982566493
C            9.82703344070661       -5.92063283669542       -8.10034442684741
C            9.59678799289450       -5.56047574883153       -9.56796167912151
C           10.14042228850472       -6.61318738091163      -10.53435320984123
C            9.89953323477206       -6.26037444736490      -12.00316596051991
C           10.44307592392697       -7.31105650996029      -12.95875851639203
C           10.46694632775880       -4.90453110487901       -2.83338200303192
C           11.54731155873315       -4.05126900378406       -2.86942330017812
C           12.80352147490987       -4.50116273581527       -2.45414683563691
C           13.97070998844614       -3.59260047028649       -2.47433884018202
C           13.83551499296657       -2.24641480723163       -2.13543931695648
C           14.92272417961520       -1.40391513136459       -2.14299691303382
C           16.18044556323077       -1.87495356816879       -2.48853515953055
C           17.35526116966388       -0.96405526264852       -2.48994020314441
O           17.22261036999432        0.20229330789242       -2.16355190964149
O           18.54796834001394       -1.52611021272710       -2.87199488847214
C           19.57301164732392       -0.57814535353571       -2.82544001595222
C           16.32278390471807       -3.21168420464662       -2.83049168474380
C           15.23820416924333       -4.05755304947031       -2.82403913239363
C           12.93542962268378       -5.82274880248576       -2.00978294804269
C           11.85898441187633       -6.68097234825517       -1.97218039348007
C           10.61604708830161       -6.21822848285308       -2.38244112450112
C            9.32640892178575       -6.90922843164493       -2.46927635650592
C            8.99643913953502       -8.23025580333718       -2.19630299610632
C            7.71134266471319       -8.66153339821433       -2.43964759163191
C            6.74062455283377       -7.80246704416860       -2.96860075101159
C            5.37271614469272       -8.28718127222063       -3.25414363595130
C            4.73533749133308       -9.18693832940114       -2.40040253266438
C            3.45977322322378       -9.62791091208832       -2.66627690205302
C            2.77816240964859       -9.18644651611878       -3.79063833144669
C            1.39775293374200       -9.65981803687931       -4.07330291471031
O            0.85293238012570      -10.44007563750225       -3.31285478620108
O            0.81619007643130       -9.16344321685372       -5.21353733207673
C           -0.47293547742854       -9.67838428028593       -5.36971970992617
C            3.40602785514425       -8.29287630804489       -4.64547248244359
C            4.68136987912538       -7.84991433134352       -4.38381548372076
C            7.08753493898494       -6.47653420552948       -3.23801011356476
C            8.36312429734727       -6.02993069623018       -2.97211409138670
H            0.49003598187242        1.26626378331554        0.92802482851971
H            0.33238419016041       -0.43711326099494        0.51009372991920
H            0.52620806797623        0.76150801952739       -0.75875137432766
H            2.66218885450291        0.07745736536390        1.34386762185645
H            2.85501615055940        1.26905825558402        0.08804884262929
H            2.57784188162724       -0.52509071017009       -1.65944132932570
H            2.37776248642818       -1.71653831367843       -0.40656555622848
H            4.68541587884738       -1.18803999933493        0.46560955707306
H            4.88784413841794        0.00192550586820       -0.78891190780233
H            4.61678268271043       -1.78986880956081       -2.53945698846653
H            4.39256545019224       -2.98098239104292       -1.29044430189146
H            6.69927932832873       -2.47741735977973       -0.39777509645811
H            6.92795162107914       -1.29676307957274       -1.65697177002743
H            6.64322963208208       -3.08731284291561       -3.39788484905200
H            6.37724972644948       -4.26628448864128       -2.14113213740596
H            8.66485426157096       -3.85850642001663       -1.23029178891536
H            8.94992709431077       -2.63510952301402       -2.43560019960480
H            9.34966285108585       -3.26578165280787       -4.83879734232096
H            7.81588570897849       -4.09217644871495       -4.93551532028877
H            9.02507285968817       -6.24283281690579       -5.48380689532584
H           10.53861227057102       -5.38605036793723       -5.45938509427896
H            9.73610503770556       -3.90302700270865       -7.32909758561936
H            8.20188588294991       -4.72675287458119       -7.33034162030039
H            9.37382883280108       -6.89617304740667       -7.88691137755083
H           10.89937439767483       -6.05846718692386       -7.91718843879378
H           10.05522345235658       -4.58834228288116       -9.78516007009473
H            8.52450998810998       -5.41654769626531       -9.74694343368315
H            9.68670572372982       -7.58625907507130      -10.31117676083222
H           11.21403661330541       -6.75299840079583      -10.36037329915306
H           10.35081041308531       -5.28323102991208      -12.21938996788570
H            8.82356543107813       -6.11904510843269      -12.16971814254738
H           11.51935155294399       -7.43975917895807      -12.83246520817427
H           10.26369247948212       -7.04760803822752      -14.00326533993320
H            9.97982073899943       -8.28299747120162      -12.78092494171451
H           11.42307061926649       -3.04616187421602       -3.22788578121945
H           12.86788636317264       -1.87287919449203       -1.84856498308726
H           14.81383465554482       -0.36694072726863       -1.87568824922060
H           20.50939718968743       -1.04043703200535       -3.14478065742093
H           19.67909488437896       -0.20665755325171       -1.80394180149057
H           19.33112937042037        0.25347547406689       -3.49092856436165
H           17.29872485090828       -3.57574738953881       -3.10158580029276
H           15.35977778692544       -5.08992367196749       -3.10205319860366
H           13.89976320330886       -6.16476976128653       -1.67648568280738
H           11.96751446047011       -7.69508012443583       -1.63022602218900
H            9.74520611197089       -8.90130133406444       -1.81397548290119
H            7.44840642859512       -9.68717501786022       -2.24746596061594
H            5.24768504935677       -9.52341954329384       -1.51589774328133
H            2.97058327281837      -10.32015718622377       -2.00301539244360
H           -0.91576605915679       -9.27717322085474       -6.28352468077438
H           -1.08443801971831       -9.39371126393186       -4.51138333980913
H           -0.42554183201850      -10.76711214843273       -5.43599410370364
H            2.87783303605408       -7.95280247479224       -5.51945798860702
H            5.16333375212606       -7.16815160489841       -5.06274362774774
H            6.36216960081297       -5.80954166227964       -3.66515145033813
