123
 energy: -23.763029354677 gnorm: 0.000598048874 xtb: 6.5.0 (97a52f5)
C            1.12869499337477        0.50263774980896        0.79628235705222
C            2.63901513815544        0.40082994397606        0.64890830212750
C            3.06131901859333       -0.48616904866221       -0.52335226804206
C            4.57848156433025       -0.60285500653305       -0.67236762573203
C            4.99527510433208       -1.49647266348844       -1.84035081884269
C            6.51135614571770       -1.62508409723447       -1.98737059977181
C            6.91822177650786       -2.52420483388138       -3.15461525985474
C            8.43198568060123       -2.67655236981668       -3.28922413994911
C            8.91998383493820       -3.52116849859694       -4.49680182925172
C            8.54053693543836       -2.86172499169067       -5.84634558588903
C            9.07781462963067       -3.61447826202529       -7.06242512812807
C            8.68945604878770       -2.96575706314583       -8.38971005200342
C            9.22011070855956       -3.73147080545753       -9.60146365461242
C            8.83510425738876       -3.08779135535235      -10.93336548762432
C            9.35634926808408       -3.86319963428421      -12.14356502521233
C            8.97581405711170       -3.22026653536857      -13.47818154365695
C            9.49278775186911       -4.00074364397561      -14.67679557863378
C           10.43765329542124       -3.70447527085354       -4.39007565315810
C           11.44565629318881       -2.76834667344658       -4.43871441841784
C           12.77864114974993       -3.17572498401920       -4.33506451564512
C           13.86928588747088       -2.17878530424671       -4.38834337673469
C           13.75195366010911       -0.95360718241193       -3.73285546909094
C           14.76105363349849       -0.02324720953729       -3.78724572730112
C           15.93568242278709       -0.26567028066607       -4.50542292595146
C           16.96386074628357        0.76016530016497       -4.51921539694509
C           18.14446392979817        0.84879302243576       -5.17343347004483
C           19.00278688455091        2.03491376467514       -5.00304231719644
O           18.77467173141380        2.98848428155269       -4.28786044419454
C           20.18335741788871        1.85080936261889       -5.85868570769106
C           21.27120798061896        2.67900550026562       -6.06578123219917
C           22.25851538096640        2.27056010072063       -6.94104745408117
C           22.16094446458803        1.05361535362012       -7.59982994717301
C           21.07518504958777        0.22501391583543       -7.39351433608737
C           20.08506243449507        0.63103047237473       -6.51749319990490
C           18.83513991680881       -0.04754951325030       -6.12706080018201
O           18.49518944431720       -1.13329739999516       -6.54521568257895
C           16.04434674583955       -1.49227844275825       -5.15847257126163
C           15.04104321597246       -2.42812361113410       -5.10164069892132
C           13.05931172470128       -4.53962570740776       -4.18137622170416
C           12.05417266105048       -5.47957271912804       -4.12800030638052
C           10.73420767579554       -5.06015309669440       -4.23062705034443
C            9.48900191653495       -5.83199027839889       -4.24814711662375
C            9.28290154602806       -7.20339164411234       -4.17226350165095
C            8.00132388466732       -7.69370738789200       -4.28592230104121
C            6.90932128989068       -6.84204316924071       -4.49504657759998
C            5.54075419559903       -7.38351155624474       -4.63430951809737
C            5.09509426536106       -8.43363747537043       -3.83236027198930
C            3.81707693197690       -8.92296345682806       -3.95451513087668
C            2.92043265838037       -8.39188982135652       -4.88655121395787
C            1.58052649484466       -8.94797356275800       -4.95778221438685
C            0.52865690177477       -8.67294101094290       -5.76286203358693
C           -0.73994186446235       -9.40737061607389       -5.60688555291951
O           -0.97182975499041      -10.27249845477641       -4.78799469337764
C           -1.67118587571401       -8.89957940688390       -6.62417859942021
C           -2.97702832301857       -9.26316408029016       -6.89785713982038
C           -3.64127773660819       -8.62538384370374       -7.92732340030882
C           -3.01110920733776       -7.63966940911003       -8.67277760787904
C           -1.70702336472365       -7.27493739054625       -8.40024113066160
C           -1.03965897634113       -7.91122051749517       -7.36955939485002
C            0.33862978162293       -7.72130972232875       -6.88038201985721
O            1.11829418819617       -6.92217795677726       -7.35240062509569
C            3.37568481873870       -7.34558071260992       -5.68654774571129
C            4.65040772048953       -6.85056406053781       -5.56564836661904
C            7.13295341772157       -5.46484859184674       -4.57407474274026
C            8.40778206354995       -4.96413213690346       -4.42968910698998
H            0.84064358253519        1.13744670491995        1.63671397644924
H            0.68140125782237       -0.47943866574649        0.95806431917684
H            0.67212976377639        0.92015935209805       -0.10253648842465
H            3.08307021457444        0.01269008605234        1.57479303165718
H            3.07448995792963        1.40052421151804        0.52216270180298
H            2.62909850474407       -0.09762110661833       -1.45314969426019
H            2.62634032301197       -1.48548666179005       -0.40295583259108
H            5.01111444970334       -0.98866348963327        0.25831849335835
H            5.01474974617164        0.39519023585967       -0.79800372568869
H            4.56713641212598       -1.10796110075291       -2.77202561661464
H            4.55293534863803       -2.49221397048008       -1.71701659793239
H            6.94023877424755       -2.01375283568797       -1.05612929492573
H            6.95615016887325       -0.63097566401123       -2.11418918272007
H            6.49544989146483       -2.12499898248489       -4.08295033750462
H            6.45761954494477       -3.50903778561783       -3.02298079895969
H            8.83194092615724       -3.12494009418876       -2.37413472222393
H            8.89286886754058       -1.68587964430147       -3.35178567325078
H            8.91038079929114       -1.83197904836791       -5.85622787937598
H            7.45197972510884       -2.78840499445679       -5.91864702067338
H            8.71938709476265       -4.65033038852996       -7.04097158534606
H           10.16941874146875       -3.69083020421484       -6.99620909576554
H            9.05570935955658       -1.93263274913506       -8.41597994827292
H            7.59793366540738       -2.88430215533983       -8.45411902322988
H            8.85294090081529       -4.76426128684308       -9.57249829744406
H           10.31138230074460       -3.81486274868036       -9.53468973637476
H            9.20964828644076       -2.05780782376130      -10.96617984435028
H            7.74422082516530       -2.99713696897699      -10.99630122079285
H            8.97942320389471       -4.89236401521090      -12.11074388828966
H           10.44686441978885       -3.95708826265687      -12.07836930728279
H            9.35576896600031       -2.19069183017395      -13.50554448253005
H            7.88392383182486       -3.12179934749397      -13.53447788011851
H           10.58077164442353       -4.08127057823203      -14.65541571253073
H            9.21643101509014       -3.53013549931742      -15.62253594949478
H            9.09505615024002       -5.01682962083839      -14.68701203546643
H           11.20695714968853       -1.72992365705685       -4.57561972133204
H           12.85990381528851       -0.74776575463599       -3.16690985463643
H           14.65040506755562        0.91413298811650       -3.26940756390550
H           16.74055826874074        1.61135970526937       -3.89754016900951
H           21.33144163355260        3.62038045705635       -5.54841419407515
H           23.11236257980155        2.90464263988668       -7.11420084958771
H           22.93980571562825        0.75189743370712       -8.28057953546855
H           20.98493577554932       -0.72079329330335       -7.89828676120976
H           16.93025020557234       -1.69873016694537       -5.72404285226833
H           15.14432123417702       -3.36128706784948       -5.62785347300680
H           14.08550933991804       -4.85050263048411       -4.09121117267343
H           12.27638051592231       -6.52561724084980       -4.01294707318276
H           10.12081344633189       -7.86405425332689       -4.03676712642519
H            7.83017647713863       -8.75507813874525       -4.24061094495101
H            5.76219361448162       -8.84863696492131       -3.09685276734924
H            3.49231482828553       -9.72966315034289       -3.31981859105835
H            1.38995301771576       -9.72338480231165       -4.23440480411552
H           -3.45151897805472      -10.03023780839207       -6.31137290414120
H           -4.65906046417564       -8.89733004003088       -8.15374838189013
H           -3.54373437084497       -7.15415526900845       -9.47384915880797
H           -1.20469898405710       -6.51346261045735       -8.97061180313541
H            2.71105609750766       -6.92530014701180       -6.41353816681859
H            4.97945636133332       -6.04972576273068       -6.20505015836281
H            6.30998135621897       -4.79951383243935       -4.75647075529922
