95
 energy: -17.320802588917 gnorm: 0.000504747096 xtb: 6.5.0 (97a52f5)
C            0.95439434567783       -0.62569153230936        0.17470561978228
C            2.46321821120789       -0.43819562909907        0.21198508468363
C            2.95357339220640        0.61868710335323       -0.77892250942760
C            4.46930308292745        0.81718489556879       -0.74519565850605
C            4.95322497561417        1.87337915201658       -1.73843229261113
C            6.46557964069506        2.09285959830035       -1.69605564958057
C            6.93327530489379        3.16289520561266       -2.68219750561842
C            8.43666966817314        3.42384361374885       -2.61467365580998
C            8.98030199328408        4.47826551020313       -3.61706390206095
C            8.84551567614670        3.99674416751930       -5.08342721117158
C            9.41111250631258        4.98557167420416       -6.10187131240019
C            9.22992078984502        4.52769862082434       -7.54804226311729
C            9.76076364919571        5.54036288969840       -8.56269047005149
C            9.55736044361720        5.09923986293292      -10.01213521993361
C           10.07117106602266        6.12173806953539      -11.02612481352587
C            9.85850797090024        5.68678990472661      -12.47711413188478
C           10.36531883399584        6.71121897755447      -13.48043923234006
C            8.30791691715159        5.84247330351817       -3.42503047054150
C            7.01657321350624        6.24371699663905       -3.68699810521217
C            6.63386171901240        7.56694551507855       -3.45328836427583
C            5.24542259388025        7.99917695611416       -3.71993846268339
C            4.16987354094732        7.14884211285312       -3.46068380288902
C            2.87829379581342        7.54852491293350       -3.71393501465122
C            2.62281043725464        8.80437767430576       -4.23172537548044
N            1.24643734086477        9.22606064006102       -4.50459462563034
O            0.31607733916524        8.46407023142352       -4.18966537111581
O            1.05682949130044       10.33085682782862       -5.04201035088163
C            3.67839718407053        9.65765153200122       -4.49346094417918
C            4.97232648262528        9.26359474906751       -4.24247393613693
C            7.58788434242647        8.47011319878188       -2.96853041072861
C            8.88843329224357        8.08453436713025       -2.73267654480146
C            9.25312066635333        6.76492009112248       -2.96639134818118
C           10.56169395654926        6.11334312565995       -2.87248940114147
C           11.79818233485722        6.62441677953460       -2.50077669560027
C           12.89814216947417        5.79667943000947       -2.52961662116087
C           12.79733847078070        4.45722037921361       -2.92677464800854
C           13.99058674278049        3.58413847836454       -2.94810453033317
C           14.96938113340319        3.68169434636372       -1.95856613888671
C           16.07523997811274        2.86371745320098       -1.97806817785885
C           16.23633249052941        1.92776089679763       -2.98240649769087
N           17.41140179353858        1.05271253576808       -2.99594436438635
O           18.23964402909320        1.15195753529337       -2.07387334485253
O           17.53938074436695        0.24052881747489       -3.92860369003963
C           15.27456110333094        1.81958338667330       -3.96933462867383
C           14.16644296365579        2.63468781835210       -3.95524564754809
C           11.54690705958861        3.95758156462903       -3.30135913837543
C           10.44316253773936        4.78004650466486       -3.27294704984614
H            0.61778876781660       -1.38367106186926        0.88495344316101
H            0.61977516113048       -0.93325769177565       -0.81731401383560
H            0.43552693523311        0.30352894900203        0.41562458840184
H            2.96735348576857       -1.39095091781448        0.00423633175690
H            2.78425414070003       -0.16180158383052        1.22471293742148
H            2.45352143942076        1.57307680125135       -0.57531099553049
H            2.64117575911408        0.34443978087918       -1.79354671733356
H            4.97124537099554       -0.13637081119201       -0.94744579910906
H            4.78141481570330        1.09512382520147        0.26847881162765
H            4.44006621164330        2.82240736966921       -1.54266069790761
H            4.65083936078747        1.59044460276538       -2.75369413668127
H            6.98367491109553        1.14847436322058       -1.90040118869175
H            6.76830224068490        2.37165974944835       -0.67975657011267
H            6.38958570956339        4.09182830404859       -2.47993195681963
H            6.64591393934813        2.87123458985971       -3.69822557073924
H            8.97868455308080        2.48556557768821       -2.76772485080979
H            8.69906479645234        3.74879539164713       -1.60264800431166
H            7.79075280906165        3.81336815177030       -5.30575811190090
H            9.34496271788784        3.02899682831631       -5.18953642169169
H           10.47447520672014        5.15844029630168       -5.89886111230201
H            8.93404106197536        5.96330352774998       -5.96627757182089
H            8.16771171632054        4.33672760623099       -7.74169213607122
H            9.72598647596629        3.56101612952591       -7.69470122158632
H           10.82599520867309        5.72325502293217       -8.37820052646316
H            9.27315090953200        6.50934362956346       -8.40254101366228
H            8.49280077338864        4.90738314301724      -10.19147750202451
H           10.05292115641290        4.13516899858433      -10.17681872484300
H           11.13690568515805        6.31064210009302      -10.85070520871428
H            9.57895967871909        7.08671287668985      -10.85625439304732
H            8.79110436637016        5.49187211562784      -12.64378150133547
H           10.35277367895644        4.72053266903213      -12.64167364449138
H            9.85885571393855        7.66958336224383      -13.35516557344272
H           10.20712578429748        6.38823880950348      -14.51144737169317
H           11.43375058946206        6.89264683235286      -13.35322829418990
H            6.31285177448337        5.55011454502368       -4.10826366576935
H            4.35908852581086        6.17476864174643       -3.04438838051668
H            2.04978808986194        6.89189475159658       -3.51147635413158
H            3.46954977324926       10.63228995727270       -4.89965005845996
H            5.78922196488784        9.92757647297066       -4.46531479662760
H            7.29050448044270        9.48584531711339       -2.77460068098874
H            9.62130584329899        8.78806965452351       -2.37921168930398
H           11.88451855014406        7.65407632963478       -2.20192963363234
H           13.86368079573211        6.18604575490655       -2.25748951797027
H           14.84288586038830        4.39545593541008       -1.16326420893150
H           16.82718759585529        2.93729872796242       -1.21142769572913
H           15.40870108123618        1.08757851442370       -4.74698052714619
H           13.42918602991744        2.55311892441397       -4.73490631357151
H           11.44055108812694        2.92983689004570       -3.59536293309048
