115
 energy: -19.641521861504 gnorm: 0.000572016320 xtb: 6.5.0 (97a52f5)
C            0.02143179800603        1.57546535829480        1.65768066358270
C            1.37856036566071        1.29050485875567        1.03292681701528
C            2.33232592151883        2.48366323973775        1.11595833237059
C            3.69852554591202        2.20108709044041        0.49071778806647
C            4.65012577130129        3.39522589027540        0.56350103455768
C            6.01406182099338        3.10884750322532       -0.06423556210361
C            6.95362910812923        4.31254149469816       -0.02400236421373
C            8.30269580006650        4.03904858383249       -0.68604920559409
C            9.24692738230440        5.26778575676401       -0.70619743182143
C           10.58086965651071        4.91179984131517       -1.41047245701196
C           11.53718570720175        6.09515733539270       -1.54450391602820
C           12.80131940172243        5.75743579567901       -2.33299536573916
C           13.71145172508968        6.96767878787645       -2.54065885111124
C           14.94629262440343        6.65101922006642       -3.38423867735216
C           15.83280867546758        7.87300359905771       -3.62557264098540
C           17.05867403472120        7.56457302574192       -4.48686708119316
C           17.92510436912944        8.78939566984931       -4.73728833307658
C            8.57342157141563        6.45821453886793       -1.39346760601041
C            8.13961246550735        6.59918948479282       -2.69269722551859
C            7.56736986826468        7.80461014012150       -3.10673027787194
C            7.12375392007434        7.97831146050918       -4.50909143450012
C            6.51030474884025        6.93420803921281       -5.20099733097743
C            6.11898495733347        7.09144213889920       -6.51462618081108
C            6.33104532807254        8.28891415661534       -7.16703803558617
Si           5.81482214793185        8.51914001199774       -8.93919635527988
C            5.48578388312870        6.86380771240611       -9.75280560022538
C            4.25733292037112        9.55586384693432       -8.99160516314453
C            7.17758869880535        9.39196138075983       -9.88210083446674
C            6.92944401639612        9.33437816597134       -6.49399251646429
C            7.32442190956659        9.18407833992342       -5.18060000546823
C            7.43875311872985        8.84589152116248       -2.17864740783084
C            7.87110586725587        8.70977073795688       -0.87693082094022
C            8.44734914910682        7.50960318137534       -0.48177605418385
C            9.01046814593765        7.10001092556959        0.81045223197525
C            9.10788628291765        7.79043219212962        2.01154016217577
C            9.68532851595173        7.16519382169666        3.09558674040516
C           10.17278317296354        5.85490615634791        3.01158473020527
C           10.77885523955510        5.19580024409259        4.19182893903296
C           10.21334136389063        5.33357928057629        5.45908291236913
C           10.77371959540320        4.70663173801824        6.55300637626073
C           11.90608739320529        3.93121462926773        6.40898079805057
Si          12.62214941723064        3.09019306551215        7.90573082237491
C           13.17502468371899        4.38980500262230        9.13443733404188
C           11.30996325814941        2.01001137341478        8.69118605490972
C           14.09002385668105        2.02309306459436        7.43964238763850
C           12.48015423206731        3.78841975533832        5.16203599102238
C           11.92484800133026        4.41146288085754        4.06334583662124
C           10.06963549526843        5.17230836257567        1.79680468894070
C            9.49309708365893        5.79207134368660        0.71039266781528
H           -0.65020373673920        0.71611440987039        1.59104521799622
H           -0.47154014095313        2.41612831408874        1.16518171429342
H            0.11937751334301        1.83441735352002        2.71390739703666
H            1.25659989194220        0.99667636931043       -0.01846315492268
H            1.84295378139186        0.42094372242396        1.51748509445427
H            2.46096992283567        2.78095445427882        2.16417171853206
H            1.87659621737792        3.35415558072204        0.62778795985382
H            3.56849851385787        1.89808337494806       -0.55571711790246
H            4.15704573556492        1.33420186118488        0.98254451015364
H            4.78151109199777        3.70119211187852        1.60884065982932
H            4.19221146966329        4.26113133446912        0.06925951200099
H            5.87876535512094        2.78419293839478       -1.10346408575510
H            6.48349423142651        2.25603808439484        0.44165718016034
H            7.10757845314328        4.62867738607527        1.01495863535918
H            6.47217850474263        5.16870036766563       -0.51211096209816
H            8.14384362710642        3.70008124286028       -1.71498289018322
H            8.80509330064867        3.21098885666130       -0.17563078560282
H           10.35603839908495        4.51053022091878       -2.40414143884145
H           11.06887054528314        4.09715009893561       -0.86572962641196
H           11.80578100646280        6.47203970600647       -0.55008722165609
H           11.01855419139225        6.92946050126130       -2.03245719644863
H           12.52257400926376        5.33868504432192       -3.30806390637691
H           13.35374074408756        4.95653846480936       -1.82619484838790
H           14.01919859937647        7.37100537626289       -1.56794567480553
H           13.14174259050785        7.77599960413248       -3.01599302060268
H           14.63426992012194        6.22826315786780       -4.34740487814151
H           15.53086851457478        5.85806487529022       -2.90149042020955
H           16.15309386594187        8.29229230204452       -2.66366217746044
H           15.24220722743935        8.66738175086845       -4.09885677061420
H           16.73083696374512        7.13220738242443       -5.44196523556230
H           17.65022681288033        6.77363306138704       -4.00624751953607
H           17.36201025435631        9.57371209125131       -5.24735340538585
H           18.79680387697249        8.55744208766056       -5.35395982068238
H           18.28974115413824        9.21360631353921       -3.79958552095157
H            8.26321735918083        5.78968810796022       -3.38869960885032
H            6.33596997239369        6.00005494814477       -4.69508446510769
H            5.64399889215250        6.28013744959765       -7.03993561124657
H            4.62918238376408        6.37962772378639       -9.29178677220525
H            6.35427681871141        6.21881751883357       -9.64941113698548
H            5.27879300226699        7.00507777962578      -10.81021990643565
H            3.46478136332462        9.06217688355622       -8.43569220444443
H            3.93366307657485        9.69302718235325      -10.01985828800519
H            4.44263037452625       10.53029981763414       -8.54783444994303
H            8.11071238227571        8.84554262654660       -9.77403168389073
H            7.31528965472899       10.40071374839954       -9.50263275018037
H            6.92326535145056        9.44756331434906      -10.93716325083662
H            7.08682843171971       10.26896854164113       -7.00621734309813
H            7.80807957840277        9.99739787978388       -4.66740136043220
H            6.98317983078800        9.76872664908659       -2.49437091753877
H            7.77245158426732        9.51509568396336       -0.17016107162235
H            8.73426089940725        8.79698292935368        2.08284507285563
H            9.77648470959547        7.69288386927456        4.02954703764240
H            9.32151679617421        5.92546416168953        5.57432104437742
H           10.33032554904785        4.81430381036173        7.52908246832839
H           12.33351189356619        5.01190029643693        9.42689203403375
H           13.93887886959304        5.02033585010233        8.68737627911202
H           13.58566764769574        3.91483728824144       10.02140014920315
H           10.46710468251953        2.61548690184425        9.01304641140392
H           11.71950288979897        1.49235373797646        9.55445439055413
H           10.95894730916804        1.27335912519336        7.97349775476051
H           14.87986567846845        2.63598827972296        7.01381015484534
H           13.79290423932788        1.27336234369585        6.71127930519132
H           14.47631057441373        1.51940958077086        8.32170131014128
H           13.36642836912096        3.18644694670872        5.05331766991730
H           12.38075087969219        4.30387730588457        3.09397419299310
H           10.42302653086514        4.16082017117122        1.71235505002350
