91
 energy: -16.288319432440 gnorm: 0.000242615431 xtb: 6.5.0 (97a52f5)
C            0.77905992819391        0.69133859278342       -0.37484524838525
C            2.25758223926352        0.37579510747712       -0.20807708287959
C            2.86470485204988        1.02285818389587        1.03796464556889
C            4.34645075590978        0.69413693817596        1.22149565086793
C            4.94981672237579        1.32931416908973        2.47430527337605
C            6.41899344694095        0.96181530301425        2.68094325607959
C            7.00424360532112        1.54550650045212        3.96569134823079
C            8.44942672632073        1.11628565670475        4.21157304348672
C            9.02921526878724        1.62123982937424        5.55723223889404
C           10.47012089073254        1.08708826066073        5.75753745498442
C           11.10429789833643        1.51296691930613        7.08003283179686
C           12.51100428159520        0.95064181886116        7.27587728117726
C           13.12975227050075        1.34728892940121        8.61593925911292
C           14.52925752809963        0.76800704266086        8.82220370834498
C           15.14157498073544        1.14895944907276       10.17022691711426
C           16.53929351871727        0.56403473122233       10.38025685248643
C           17.13912303180879        0.94040614110640       11.72629150347115
C            8.99687730262277        3.14971897439938        5.63196930665895
C            9.62408642786010        4.08990634729536        4.84471633380908
C            9.45428271438703        5.44943936026619        5.11902351125919
C           10.12570062335521        6.47323965956451        4.28470423972702
C           10.17202261743452        6.34682701598240        2.89673728429894
C           10.79782547629043        7.29982586586113        2.12169654045950
C           11.39122967325670        8.39601322095741        2.71590722307310
C           11.35643311446236        8.53765595253493        4.08900520031612
C           10.73024984448175        7.58710585758574        4.86665606083275
C            8.64224165178816        5.82740394085536        6.19561526534413
C            8.01092846617971        4.89110800450779        6.98532062853092
C            8.18952782831986        3.54335355734122        6.70271469212408
C            7.65106430187926        2.35170617259101        7.36861234487949
C            6.79639062717889        2.23512931320708        8.45688029281326
C            6.42863041538194        0.97768399022995        8.88435610237166
C            6.89848125034684       -0.17831612147454        8.24851123075265
C            6.48602455072908       -1.52102623916665        8.71912663233181
C            5.16358286549121       -1.77876326858064        9.07875644864459
C            4.78074803312972       -3.03074214408750        9.51040231323839
C            5.70952474621096       -4.04931351490718        9.59221629498570
C            7.02373326170474       -3.81283843861474        9.24025731350700
C            7.40950625866003       -2.56224191752528        8.80721643999006
C            7.76006189783260       -0.04683617143003        7.15662743976040
C            8.12840457022288        1.20753739866124        6.72388136820086
H            0.35769229117155        0.22492686720157       -1.26853181733722
H            0.61127484340465        1.76717420200588       -0.45569109434042
H            0.20127322399559        0.33958994482346        0.48226952263531
H            2.81699815624103        0.70194010007534       -1.09526260792641
H            2.40884683694826       -0.71119494934894       -0.16201009048799
H            2.30502760164132        0.70522768217964        1.92652320393378
H            2.73083124190423        2.11072920861572        0.99186786667345
H            4.90962554334396        1.01525803752056        0.33656550720308
H            4.47784063292717       -0.39430678686967        1.26254899849145
H            4.36936130142514        1.02564126747399        3.35436823843219
H            4.84362294850787        2.42011373421944        2.42623287165995
H            7.01106039175197        1.29283944216500        1.81885763283429
H            6.52339942906731       -0.13023407478007        2.69576466146164
H            6.38323428446192        1.24316433570781        4.81771605134188
H            6.93932619508716        2.64013852906584        3.94254074800215
H            9.08631156542042        1.46610962308361        3.39275238143055
H            8.51383255331561        0.02347971598841        4.19046555452984
H           11.09364502020877        1.42260572861682        4.92257858092787
H           10.45347549041851       -0.00580429277333        5.69415400324066
H           10.46428897183366        1.19709505089805        7.91286870661522
H           11.13076176246858        2.60763235007937        7.14274598988113
H           13.15925431108464        1.28251605005944        6.45548046352110
H           12.48383591336045       -0.14295103629978        7.19309551035046
H           12.47369406925080        1.02375827508175        9.43356843349993
H           13.16635087162326        2.44073715938334        8.69653447291490
H           15.18861848070173        1.09884794722701        8.01025495283573
H           14.49198596623577       -0.32460914816063        8.73085041300309
H           14.47961820929941        0.82030646462634       10.98103105313817
H           15.18149541487881        2.24148691770867       10.26140577499302
H           17.19754075610510        0.89641756309514        9.56622844634259
H           16.49376913333179       -0.52873158711577       10.27907413866438
H           17.22433355981735        2.02379423377139       11.83155375467814
H           18.13704549161389        0.51747310084001       11.86432615258482
H           16.51554127774480        0.58566916166660       12.54935151500286
H           10.25300352538793        3.77621686377102        4.03170985560669
H            9.70067494745292        5.49749152471307        2.43235153754180
H           10.82315556892372        7.18965398951762        1.04953712552247
H           11.88130856434416        9.14018357519570        2.10890739983897
H           11.82150511586084        9.39201270257312        4.55393531214787
H           10.71396841450795        7.69192231276840        5.93800049885240
H            8.50489475406787        6.87574497060559        6.39791025118710
H            7.38735465361959        5.18769657768695        7.81048101707452
H            6.43236937457316        3.11965947554681        8.94968019904054
H            5.77308497382808        0.87281459787462        9.73174625557281
H            4.43666510707496       -0.98824683519803        9.00269971975669
H            3.75408701359833       -3.21525065505409        9.78293507015274
H            5.40894601591378       -5.02783097233473        9.93064413796590
H            7.74964764278154       -4.60728134206223        9.30533892085199
H            8.43611052095256       -2.37512204302996        8.54201359038927
H            8.12248360167538       -0.91928594977373        6.64436967616162
