109
 energy: -20.704455706720 gnorm: 0.000709019738 xtb: 6.5.0 (97a52f5)
C            1.09647969171452       -0.07009472426237        0.50404784947930
C            2.61090432313765       -0.12681249689394        0.37476668553813
C            3.12479688780126        0.58794603978572       -0.87582192945974
C            4.64622449375039        0.53333298450186       -1.01818418153214
C            5.15045049201492        1.24345626144154       -2.27418476750104
C            6.66841261278168        1.17149484169579       -2.44144615728954
C            7.15276976946100        1.87426275924494       -3.70933450567735
C            8.66389133582623        1.77758288358818       -3.91087091878152
C            9.20408211888152        2.39710396622680       -5.22770373024159
C            8.62764003221763        1.67448871163057       -6.47035693648578
C            9.18274938843474        2.18916333838195       -7.79695168856435
C            8.55714971019819        1.49683219708216       -9.00659552051162
C            9.06907065897491        2.03893778956883      -10.34055873351891
C            8.41349042691489        1.36446002507153      -11.54576026445102
C            8.89873189694168        1.92173331037919      -12.88386811111244
C            8.23479533872350        1.24992742608882      -14.08707753809892
C            8.71699845889256        1.81031547316129      -15.41602347182980
C           10.73549829062231        2.32910687093769       -5.21831720425969
C           11.57601735089685        1.23632936875293       -5.21547332695381
C           12.95790796075084        1.42670053482582       -5.21227088350547
C           13.83374485824232        0.32015646986927       -5.23217459401328
C           14.59942771680875       -0.62797501579208       -5.27600871433690
C           15.46788202465368       -1.66956963841292       -5.34673038765093
C           16.25480935516662       -2.59699962074128       -5.43619528370172
C           17.17631416808383       -3.65745294953014       -5.56326951012448
C           18.30242809374598       -3.52504639096807       -6.37231100504586
C           19.20119900536735       -4.55690504075404       -6.50432768695655
C           19.00831093075330       -5.76270252063841       -5.83262097763839
N           19.94238073153921       -6.83969361385789       -5.97642820711333
C           21.33946143567784       -6.56321894384926       -6.16480795607478
C           21.95977866794888       -5.52141723340864       -5.47876820785792
C           23.30036859597903       -5.26232256667895       -5.65682365678698
C           24.04690108362409       -6.03807456406208       -6.52255482357671
C           23.44672384614043       -7.07478519946800       -7.21065918267747
C           22.10634344808355       -7.33555132234908       -7.03428892410328
C           19.48575806091398       -8.20141667700355       -5.95878570079928
C           18.27362239710549       -8.55612967355803       -6.54676697495363
C           17.84491491576738       -9.86460923621786       -6.53992152959711
C           18.61811478672725      -10.84378118744844       -5.94669973725344
C           19.82275306288506      -10.50863026031272       -5.35935066142744
C           20.25325948353479       -9.20079599799413       -5.36477062344314
C           17.88189105309959       -5.89445945808989       -5.02219054774246
C           16.98353590509887       -4.86172454812669       -4.89034282793521
C           13.46664116967622        2.72851110424569       -5.20569977629622
C           12.63264270431863        3.82584432552265       -5.20757549274750
C           11.25855425567795        3.62464240755520       -5.21415531283803
C           10.15903637705401        4.59097200994322       -5.26263730554414
C           10.19062007389690        5.97837535023521       -5.33848261408676
C            9.00444915768845        6.66768169620828       -5.45274864806074
C            7.78048092057119        5.99384775307710       -5.50787858410665
C            6.52799370836031        6.73082629410719       -5.64767972859389
O            5.42686108559325        6.24868724040850       -5.70843068275923
C            7.75923028341572        4.60326627652792       -5.43621390376756
C            8.93950172022502        3.90583839301402       -5.29584725520177
H            0.74113523540124       -0.58310047919969        1.40045691632173
H            0.60949934426899       -0.53514132573278       -0.35504098113905
H            0.74297993131933        0.96136604730960        0.55425837017968
H            2.95000124497150       -1.17112134747145        0.36047942153283
H            3.08313577667122        0.31266914730555        1.26333471214071
H            2.79353156640089        1.63345866780237       -0.86453363086853
H            2.65664951091994        0.15142794268502       -1.76651242620717
H            4.97777217517924       -0.51204589932070       -1.02817056395033
H            5.11700792503886        0.97353875139626       -0.13085903742916
H            4.83126766092204        2.29263058578624       -2.25760680561668
H            4.66421990246964        0.81299496721808       -3.15809397315472
H            6.98799441352362        0.12244258440003       -2.45623908818630
H            7.16041122539295        1.60813272143983       -1.56392272015483
H            6.84912993627413        2.92619215928748       -3.67406238417322
H            6.63143213551755        1.44994608568695       -4.57449077316329
H            8.96848619215338        0.72675275774096       -3.87375722091231
H            9.17429136917418        2.25738137038708       -3.06931054459906
H            7.53917246467820        1.78077693506280       -6.47334706714640
H            8.82133342531700        0.60098907210999       -6.38028587844953
H           10.27185968928084        2.06389193230088       -7.81881289204223
H            9.01971137939068        3.27113919867302       -7.86826490351199
H            7.46616227945647        1.60181613783830       -8.96376009592925
H            8.74149797982642        0.41711425697818       -8.95026138878547
H           10.15788801215930        1.91953580451701      -10.39533106293012
H            8.89815486246995        3.12130319289828      -10.38702144748311
H            7.32394539384124        1.47069596850933      -11.47777387008857
H            8.59663157762894        0.28375891933267      -11.50775340942835
H            9.98778555741942        1.81336142004423      -12.95521612250021
H            8.71735202636055        3.00284113936123      -12.91976481621119
H            7.14489266557872        1.35648600721375      -14.00559644959440
H            8.41749290428554        0.16799534535500      -14.04438686923068
H            8.51014399321616        2.87935865224412      -15.49176167336024
H            8.23602511159411        1.32165339691187      -16.26630312950603
H            9.79490899937543        1.68241236482329      -15.53039337933732
H           11.16955640898847        0.24131013799322       -5.22347923877643
H           18.45944453661559       -2.59881166253681       -6.89844122467619
H           20.06144894697189       -4.44884179108565       -7.14137300430595
H           21.37588031026256       -4.92673721034174       -4.79815976166495
H           23.76816602814903       -4.45422182591280       -5.11840144558983
H           25.09638973404143       -5.83499502456766       -6.66055762445417
H           24.02803365463469       -7.68000657143111       -7.88709519521647
H           21.63171716234277       -8.13651908615643       -7.57369727239940
H           17.68072813751096       -7.79167242601018       -7.01777427377461
H           16.90579879767144      -10.12550224867420       -7.00012216742016
H           18.28231055167588      -11.86795358844442       -5.94289046764082
H           20.42670347077830      -11.27194653283860       -4.89633865603209
H           21.18795778995752       -8.93305900923472       -4.90381744930196
H           17.72829993902002       -6.81794014013046       -4.49193345505528
H           16.11657141183838       -4.97400547835667       -4.26177581021452
H           14.53464034204518        2.86525047178712       -5.20575940137505
H           13.02852629910086        4.82614677722982       -5.21169158840059
H           11.13412854496034        6.49479645171752       -5.31783436570377
H            9.01143645342312        7.74251420986142       -5.51287440901999
H            6.59016396103589        7.80880099206640       -5.70181844079833
H            6.82215732914487        4.08421385150328       -5.51677720364392
