109
 energy: -20.146546678469 gnorm: 0.000651161486 xtb: 6.5.0 (97a52f5)
C            1.22137577771061        0.95012695367259       -1.95557993010495
C            2.54039346203730        0.55458100221722       -1.30987702153011
C            3.19443907049288        1.70588659541288       -0.54410210989764
C            4.51956421838003        1.31368503703336        0.10970475846836
C            5.16468921792962        2.45969504845502        0.88913510505848
C            6.46489160573839        2.05279227834618        1.58201734201651
C            7.08234215619695        3.18446760416591        2.40174476318274
C            8.34160708474108        2.75807970098295        3.15365695946860
C            8.92952450100234        3.86599143883216        4.06393821412173
C           10.16076139386541        3.33003835871279        4.83724133959737
C           10.79408632300972        4.35732531952946        5.77321334795630
C           12.01253172125848        3.81420166835272        6.51747463802826
C           12.63830039176817        4.83721689649660        7.46507007750341
C           13.86346656283890        4.29578519302833        8.20169145021307
C           14.48826045186614        5.31427113548838        9.15529651997969
C           15.71824988820940        4.77334402836364        9.88625551279230
C           16.33808618349439        5.79135412498375       10.83096607702784
C            9.29545668784458        5.11088909176073        3.25264032284539
C           10.19749970680831        5.26539815380920        2.22422746353921
C           10.36134025911999        6.52166088326187        1.63828926277837
C           11.30968060096686        6.71374100640598        0.54489162171587
O           11.52641609074633        7.74833678677767       -0.03063971772549
C            9.60916589088279        7.60085144946072        2.10504150099561
C            8.70596743218092        7.45344697002570        3.13420694484348
C            8.54796553570508        6.20002087256730        3.71345900616279
C            7.66814795373764        5.75954632811474        4.79761947393869
C            6.72725688569382        6.46459180395070        5.53822344523006
C            5.98938906308854        5.79513273862834        6.48782229740586
C            6.16312494598019        4.42179867805345        6.72423100100872
C            5.32554015795138        3.76064154469004        7.70840486483990
C            5.34441344598361        2.44555802865603        7.98953715894815
C            4.48032373738905        1.77646691120188        8.94391317650871
C            4.67286475461109        0.41693213211028        9.21289128498811
C            3.86505840920221       -0.25114777335158       10.09858100137057
C            2.82371170789494        0.40568318015907       10.75481461387429
N            1.97679195946320       -0.29211418373110       11.67141092494212
C            2.49572983422511       -1.38020213625731       12.45352722720529
C            1.72296942950041       -2.51359690047329       12.69620823663764
C            2.21925492572245       -3.55493862083254       13.44807955105388
C            3.49542263055540       -3.48383654184260       13.97266701182997
C            4.27356058600677       -2.36554568897633       13.74346263186936
C            3.77948624526761       -1.32308683974364       12.99181377302446
C            0.59766945447284        0.08603820356996       11.81452274690621
C           -0.01666563585675        0.07788947652280       13.06476848827099
C           -1.33971789934509        0.43470525136451       13.20016468686395
C           -2.07462480690108        0.80486458333931       12.09032990848163
C           -1.48081757004825        0.81609782365357       10.84301574235321
C           -0.15797496245067        0.45990339392910       10.70526518809312
C            2.62748575687554        1.76101594881759       10.48811864057708
C            3.43558036549191        2.43235979969012        9.60461791971060
C            7.12579893045658        3.72863102703150        5.97876743767552
C            7.86488811923329        4.39430276674720        5.02823943587929
H            0.76314173327524        0.11881389259478       -2.49607728664014
H            1.35910770196426        1.76737435092090       -2.66591339082380
H            0.50283511066858        1.29131604641779       -1.20802962607637
H            3.23834275872853        0.18355577547211       -2.07213535991227
H            2.38807092316819       -0.29308710411208       -0.62854683252739
H            2.50255937871045        2.07743373305521        0.22166492861258
H            3.35374867244782        2.55515143945313       -1.21961432990182
H            5.21612902715660        0.94914124770844       -0.65503530946347
H            4.35913540709063        0.45965270614138        0.77901822736205
H            4.45597421283166        2.83951218546819        1.63517708343494
H            5.35211544651236        3.30629646910486        0.21756846145914
H            7.18761438119897        1.69604560969540        0.83818185498125
H            6.27698129337297        1.19056569855897        2.23355447944327
H            6.34056769027012        3.56192996119423        3.11576499457753
H            7.30832496062374        4.03729061026737        1.75049348465027
H            9.10795120356862        2.43390335999513        2.44260381027005
H            8.11889572483228        1.88052102717332        3.76907081535549
H           10.90613375013980        2.97903170432956        4.11652271227236
H            9.86278713208002        2.44583166461788        5.40966989554815
H           10.04697695261501        4.70750403514244        6.49553818035100
H           11.07811988411644        5.25020886655020        5.20346004386978
H           12.76360349357608        3.47364298980955        5.79430807709021
H           11.73009265056285        2.91574773708842        7.07966183733895
H           11.88873125666326        5.17226584163385        8.19230987220310
H           12.91370888875698        5.73864495949014        6.90421409404404
H           14.61382077916016        3.96496287374542        7.47329572085210
H           13.58851261555660        3.39122897324169        8.75774102759802
H           13.73938788700557        5.64184765730207        9.88669621295869
H           14.75902074158132        6.22059398515537        8.60004483125706
H           16.46093761804755        4.44149095777555        9.14855506828679
H           15.44160852516278        3.86501200665484       10.43791989360963
H           16.64954090563597        6.68932067925882       10.29417042754480
H           17.21691442203905        5.39376998125111       11.34359607373879
H           15.62553335833793        6.10495162006834       11.59609999287474
H           10.77041245752818        4.42468536739796        1.87768113784758
H           11.87081978379384        5.84898920134918        0.21901411037402
H            9.74851113322703        8.56216921420729        1.64136443921559
H            8.12642206045825        8.28642211240867        3.49135985182099
H            6.57941399267339        7.51445702537810        5.35570364502928
H            5.25011466423573        6.32922481315397        7.06000849999389
H            4.63308431777053        4.38942269704496        8.23690738001008
H            6.04452002702093        1.81857799292327        7.46891494558461
H            5.46822801250199       -0.10685775855839        8.71055630821981
H            4.01622220176609       -1.29974622841173       10.28616788416207
H            0.73230274555003       -2.56610255908128       12.27948545547957
H            1.61132187368276       -4.42698732745413       13.62639459968124
H            3.88294987550579       -4.30002597116395       14.56039337996779
H            5.26841381727400       -2.30752976170128       14.15429765626929
H            4.37720837161408       -0.44545521327637       12.81740717837126
H            0.56251915014837       -0.20520236473772       13.92630373820059
H           -1.80204738617137        0.42533427665857       14.17382023873310
H           -3.11013768880306        1.08415383149830       12.19753771077981
H           -2.05302974621181        1.10326288468445        9.97584925905842
H            0.30758049103131        0.45758616832370        9.73513592737654
H            1.83251503953208        2.27873732711640       10.99576227353426
H            3.25307451368374        3.47435752397940        9.41232078965266
H            7.29120316573451        2.67869467283661        6.12848230569846
