130
 energy: -23.591051791433 gnorm: 0.000623482020 xtb: 6.5.0 (97a52f5)
C            1.09365037297689        1.60055681249059        0.73539004721789
C            2.40373793245915        1.37010672113463       -0.00214207591148
C            3.04062466996754        0.01918408458748        0.32840107147976
C            4.36415473635974       -0.21399309558953       -0.40081620186080
C            5.00830568121438       -1.55678718109727       -0.05592302166512
C            6.34766964034805       -1.77761010477323       -0.75934765241829
C            7.00738096115072       -3.10109790476263       -0.37586809378384
C            8.37336833917210       -3.30556575100354       -1.02921608832362
C            9.08233476112581       -4.61477993768205       -0.59416509523356
C           10.47151690756314       -4.72108939615788       -1.27365444821439
C           11.18257925183496       -6.05370670175535       -1.04019155291644
C           12.43224540491178       -6.21360701585904       -1.90605786349367
C           13.05993995097377       -7.60384193825336       -1.80659958150624
C           14.23616904087568       -7.79356766891882       -2.76506382739029
C           14.82923232409332       -9.20182781637753       -2.71762759614893
C           15.96918178551711       -9.40460464365411       -3.71755368254438
C           16.55260863764850      -10.80829083060850       -3.67048299745721
C            9.18182224432123       -4.68147025757654        0.93157690003539
C            9.86718333660274       -3.87381320066458        1.81612299437778
C            9.75633330788232       -4.12084519120906        3.17312198660680
C            8.96718276850033       -5.16012629690827        3.64189778111233
C            8.27508668126235       -5.97073000759115        2.76477920553323
C            8.38010845544199       -5.72646700891712        1.40159142317715
C            7.79281631562280       -6.43881514159318        0.26066995166574
C            7.01586425416771       -7.59155117516612        0.22002208164942
C            6.71610671130478       -8.15004302494667       -1.00254487292551
C            7.19195956812599       -7.58711971494672       -2.19223641082902
C            7.04145400523968       -8.28797008829189       -3.46402136784359
N            6.12571482445465       -9.22649264844120       -3.73358525860199
N            6.35191068219194       -9.68108838144166       -4.93291546353633
C            7.41785517412333       -9.04049984520952       -5.42956776387026
C            8.05078420729923       -9.32580714084374       -6.71157759922979
C            7.52306206652610      -10.27228284195811       -7.58688254725457
C            8.18715864285238      -10.59988031913544       -8.74461357600619
C            9.40282577499785       -9.99823057647427       -9.06163948985348
N           10.15093639614612      -10.41356723508586      -10.21631030921499
C           10.83272623631713       -9.57410390755893      -11.12527538029998
C           10.88106793185357       -8.18666781458193      -11.23922435088683
C           11.65807102277051       -7.62880723630605      -12.22507285666610
C           12.40671807028316       -8.40978303479367      -13.12488516196330
C           13.26602052028413       -7.71247035754934      -14.19175992120131
C           12.36027752479434       -6.86059186190365      -15.10015432010153
C           14.30442394953891       -6.80909231916652      -13.50037987820115
C           14.01938562984644       -8.72850357256238      -15.07283463025839
C           12.34806348148008       -9.78707089501062      -13.01606785734635
C           11.56169242046759      -10.37076932941486      -12.02204949315163
C           11.32905782562385      -11.74887761311269      -11.66021383305006
C           11.81729409421743      -12.94749548238062      -12.18250713799939
C           11.45192768483323      -14.14881365557310      -11.60282577290797
C           11.96992026851854      -15.49837493982027      -12.12530794015849
C           12.85614286904869      -15.32556215769800      -13.37448996355493
C           12.80573107846750      -16.18083713536641      -11.02666091132817
C           10.77595401898984      -16.39605250509157      -12.50119579458469
C           10.59496879564474      -14.12725982064337      -10.48719512518327
C           10.10559667533470      -12.95716257535241       -9.96063240663661
C           10.46745099643737      -11.74914004276476      -10.55247809940260
C            9.91656056314754       -9.03403231429205       -8.19842449524781
C            9.25123524194285       -8.70301910068248       -7.04315396885376
O            7.86722185469217       -8.11597787587715       -4.53579969338893
C            7.93334512280698       -6.40660917096519       -2.14466793579124
C            8.22090933668584       -5.83487202604540       -0.92652103976445
H            0.64963243519715        2.56833706827480        0.49126211255038
H            1.23887414734694        1.56980383402028        1.81690113415352
H            0.36031538799352        0.83089827879575        0.48750395822910
H            3.11530013955526        2.17296936940340        0.23267967341059
H            2.24498306636592        1.44047241183443       -1.08648318409583
H            2.33904486977003       -0.78855680765024        0.08662928620362
H            3.19919829783074       -0.05682830719506        1.41113629608478
H            5.06142984414683        0.59905064214131       -0.16429952545655
H            4.20633629091107       -0.14760563558041       -1.48419457342384
H            4.32007136192451       -2.37313325391621       -0.30673628868245
H            5.14895583775137       -1.62720272559654        1.02965204630866
H            7.02617120601222       -0.94847479484275       -0.52399616485637
H            6.20891779413616       -1.73326170506257       -1.84643208537711
H            6.34413459405267       -3.93514020965361       -0.63494561513626
H            7.11251898532126       -3.15144308055625        0.71454939522986
H            9.02399830153556       -2.45804651657319       -0.79090026484741
H            8.26696072749161       -3.30154875940223       -2.11863990589472
H           11.10410036048986       -3.89298269234450       -0.93895497433206
H           10.33782850269162       -4.57105477685983       -2.35006801294793
H           10.49158801188406       -6.87727993477797       -1.25602281015024
H           11.43565444517961       -6.16709246648638        0.02070096006350
H           13.17109829788085       -5.44726997819504       -1.64208455821769
H           12.17380737286789       -6.01066527454104       -2.95285215963250
H           12.29654536435448       -8.36403158811296       -2.01322088464216
H           13.38156244067140       -7.79525202650953       -0.77578073362135
H           15.01613949239173       -7.05443569271602       -2.54518567121168
H           13.91240874880796       -7.56904403617924       -3.78886750138854
H           14.03984713487484       -9.93938576486704       -2.90772391861241
H           15.18370981944850       -9.41931022713399       -1.70272316610801
H           16.75491656076816       -8.66144406432817       -3.52713230908237
H           15.60674503629069       -9.18073232706869       -4.72984435113686
H           16.94747018288237      -11.03858787836199       -2.67921560213491
H           17.36661010440340      -10.93880407089972       -4.38722558388430
H           15.79307015990755      -11.55914592686967       -3.89635406664412
H           10.47162297047611       -3.06431459390412        1.44556557952290
H           10.28826314809422       -3.49686582701306        3.87275654627278
H            8.89374103856247       -5.33787045790894        4.70251365227042
H            7.66372157707201       -6.78198058583602        3.11926843241199
H            6.68894394623945       -8.05039781814583        1.13655921424870
H            6.14995680072134       -9.06351324097511       -1.05463830376981
H            6.59696921244468      -10.75770558140077       -7.33305758181837
H            7.77772485785328      -11.33164729243938       -9.41899729986705
H           10.31056752207494       -7.57460998725522      -10.56373171252554
H           11.69808010678837       -6.55705293644682      -12.31256693527841
H           11.84919019203345       -6.08327667746724      -14.53381501237088
H           11.60208264733101       -7.48052651365306      -15.57791225195926
H           12.94106961677496       -6.37394570573330      -15.88333418232910
H           13.82305798667574       -6.03154001934944      -12.90891153479097
H           14.94526338001185       -6.31998989152619      -14.23361053204435
H           14.93902498746693       -7.39252050734871      -12.83378676167424
H           13.32485594476510       -9.38089379000863      -15.60133442421185
H           14.68880627049993       -9.34614200109369      -14.47462314658783
H           14.62451759518892       -8.21715562593785      -15.82117313555597
H           12.90164096917099      -10.42464229936415      -13.67881658752323
H           12.47912254082636      -12.91262407186314      -13.02686581175588
H           13.73843354900881      -14.72664089987721      -13.15057364057049
H           12.30548179383461      -14.84384928996523      -14.18202855932942
H           13.20018265942078      -16.29257761203080      -13.74078309163843
H           13.64377768846248      -15.54955904327174      -10.73240066576989
H           13.20618280569016      -17.13232395949699      -11.37563731079649
H           12.20690824218543      -16.37720926700606      -10.13829442329922
H           10.15751682154368      -15.91649762715871      -13.25941893957639
H           10.14637718828945      -16.60323635879773      -11.63706395152207
H           11.11724169219011      -17.35142704865964      -12.89907190694745
H           10.32014151840030      -15.06029837607156      -10.02698856246264
H            9.46534167338706      -12.95959893110162       -9.09697395913375
H           10.86284508426274       -8.57791247129418       -8.43125883730536
H            9.66441530392818       -7.97804270546487       -6.36297159729677
H            8.31496631606451       -5.97561285738274       -3.05218475292751
