130
 energy: -19.669827134258 gnorm: 0.000948157789 xtb: 6.5.0 (97a52f5)
C            0.37185015869610        1.86596012674360       -0.49755589319132
C            1.84512983597424        1.51180152123511       -0.36631973343409
C            2.50209633721314        2.15297102572007        0.85730315425748
C            3.98384708183637        1.80224131602087        0.99361559904874
C            4.64238252077459        2.44742360044776        2.21314149634782
C            6.12682305183589        2.10586008716425        2.33915249544922
C            6.78961514862516        2.76088661822007        3.54972192455439
C            8.27671046983713        2.43310398374372        3.66402105347571
C            8.96836639741011        3.09166014200410        4.88364723816709
C           10.47212750200116        2.71845904356331        4.91991292474475
C           11.22218371609120        3.32069968460712        6.10667208495354
C           12.68705494733476        2.89277436834755        6.16966306951851
C           13.42502629649357        3.47283610531399        7.37613137971630
C           14.88557017420607        3.02806023545788        7.45269695176676
C           15.62237335606537        3.59768397506543        8.66513804447113
C           17.08080494650784        3.14348232524273        8.74702761265258
C           17.80640611168752        3.70614131394220        9.95951751102427
C            8.78403507398219        4.61120676390429        4.86711676922564
C            9.17664281181959        5.54680034075928        3.93185110276044
C            8.88618528369205        6.88106882242594        4.15553811874912
C            8.21190094608356        7.27689689723721        5.30059986783285
C            7.81463298041255        6.34788090078365        6.24092012338757
C            8.10216748987078        5.00715840272702        6.02126730974654
C            7.80200816053615        3.82578793030332        6.83678770503856
C            7.17290602272152        3.71995093440416        8.07106203193199
C            7.03696441376543        2.47576968835267        8.64230052530224
C            7.51330448030563        1.32796012522936        8.00447936562469
C            7.37164117532403        0.03082187536684        8.64912961293935
N            7.69230915225035       -1.14343072765198        8.09309055413408
N            7.43945040549402       -2.08443120864838        8.95521995894637
C            6.95893443598587       -1.51473889437726       10.06740653577872
C            6.56071456474134       -2.23071373645706       11.27629038604126
C            6.63369091927230       -3.62748850866487       11.27534160398546
C            6.34822886919559       -4.53827300569067       12.27562817404125
C            6.02246155796812       -4.30834968059879       13.56787173193591
C            6.01407200335905       -3.15920079242077       14.24723192241628
N            5.59483000653333       -2.93640056047750       15.40986130349508
C            5.59011982083674       -1.77616770222358       16.00460303147553
C            5.16183041354951       -1.43997760145175       17.23658093695473
C            5.20804232055385       -0.17498537743992       17.72513948505262
C            5.71620172728087        0.98845187556982       17.05712846750520
C            5.07383786534870        2.25483965309367       17.42421281747102
C            8.37246950889176       12.01275458777271       20.99365598154446
C            7.13789794612411        1.03909703022333       16.90800497317014
C            6.74408685816884       12.03515228926632       16.22960942251202
C            5.99504118116371        4.51693254723957       11.46144421817062
C            6.11557639794850        3.45307276029989       12.23301483402153
C            5.46352374120898        2.29659159959231       12.13012487942416
C            4.56640894512782        1.97542920239201       11.23201360782893
C            3.87693548494998        0.72210085744225       11.12833628577979
C            2.78520011491255        0.52464776156813       12.08334473199859
C            1.29442137976334       11.74065097613304        8.94961600789664
C            3.61252885426833        0.26561711598817        9.76232581815805
C            0.11520415131915        7.10308133356954        7.67401225434769
C           -1.74444428645866        0.09282887498143        9.00348471221005
C           -1.04083785344961       -0.66100318841125        8.24401284184079
C           -4.58417045258486       -1.51478266578742       17.07062046736890
C            6.11284689189907       -1.49750174022910       12.31246743936446
O            6.89663033261068       -0.16311966031437        9.91128897812683
C            8.13975788417971        1.44086764284277        6.76342375040145
C            8.28346315891941        2.68317784435961        6.18945538297857
H           -0.08516185678217        1.40236095982658       -1.37469280275901
H            0.23169330393632        2.94485817991784       -0.58613538321664
H           -0.19186353857571        1.53936803478497        0.37822926069427
H            2.38881502449450        1.81613402439741       -1.27061851584993
H            1.96868593589833        0.42184296603321       -0.31459857219916
H            1.96659814376497        1.84885717142170        1.76494741457710
H            2.38475119985573        3.24248240933232        0.80927209175144
H            4.51823198954096        2.10426759913757        0.08459950412957
H            4.10179125801840        0.71295043871630        1.04453316939554
H            4.11437252514285        2.14008976670644        3.12399743948837
H            4.51838447711038        3.53616522501191        2.16563407554705
H            6.65248199219303        2.40736140818054        1.42487483696379
H            6.25197187847825        1.01756076206379        2.39443224978722
H            6.27218532646730        2.45261280488711        4.46589312799569
H            6.65481340893877        3.84806967180745        3.50012753896980
H            8.79384651007477        2.74625194585414        2.75149349322474
H            8.41124711561788        1.34837667330594        3.72338714928559
H           10.94249333400571        3.03637760436537        3.98410670612841
H           10.56394343438894        1.62791839245493        4.94308718455050
H           10.71902825520634        3.03917473511264        7.03930206976829
H           11.15680517439533        4.41476610515402        6.06937506609459
H           13.19841275780915        3.18795131887961        5.24536806547276
H           12.74868835125650        1.79787869544646        6.19304773186308
H           12.90449119759182        3.18591775987134        8.29794225375822
H           13.37297527921114        4.56803987815988        7.34886738483502
H           15.40804684383843        3.31916719306574        6.53331861124585
H           14.93521576181338        1.93255001297413        7.47386656722930
H           15.09579336642609        3.31097487712885        9.58360239431488
H           15.57819609408670        4.69337099202821        8.64193881593821
H           17.60306840849524        3.43358517978565        7.82562794376411
H           17.11818271140784        2.04606217014427        8.76043062453598
H           17.80986778339647        4.79755701427270        9.94594658204189
H           18.84606608202651        3.37445788015511       10.00614071191718
H           17.32170343979757        3.39781793652593       10.88765829342923
H            9.69959946770061        5.23233703101956        3.04556855394316
H            9.18801157877600        7.61999053385543        3.43125956098950
H            7.99534844111424        8.32094595680552        5.45823231080886
H            7.29169265974982        6.64519745776106        7.13280689586501
H            6.80929642216873        4.60221461743495        8.56719988615387
H            6.55574325995480        2.37089806600161        9.59855232355422
H            6.94930418222722       -4.04653327991731       10.33303274193781
H            6.40259469663780       -5.58146659898972       12.00186220674019
H            4.88896256258693       -9.22154942705839       13.48267570926975
H            4.75391567993537       -2.21011746480689       17.86916583322348
H           15.53093469114817       -2.11113306759279       16.51603929784484
H            5.31674543935366        2.55518201420103       18.42375192185082
H            4.00910585098244        2.21528398439634       17.30875977871968
H            7.45736644984695       12.44255176158007       20.82543373236922
H           11.92190929272577        3.00102177831290       12.58378845791844
H            8.76465813070940        5.68290606574623       15.07315050165587
H            7.44347401924744        1.78606761820120       16.23477735337190
H            5.32254000543557        8.24866047871436       13.93998190918910
H            4.45325388189773        8.27779956796775        8.69204592246164
H            7.71450745358328       12.30735263362486       16.40337936160716
H            3.35975458784027       11.92750559425306       13.03797295079391
H           10.10885902352164        1.62738867934211        9.15867070706885
H            1.95451500763247        1.17148742658589       11.88437308624414
H            3.10695439391827        0.65460506349192       13.09707382775954
H            0.30220720363232       11.56200654307945        9.13418822689600
H            8.21777313961738        1.13966638195272       11.43710849681748
H            4.99121590027306        1.56207439457091        6.59087419303148
H            4.48625247199476        0.33065307700007        9.14566028512087
H           -3.15922714686013        4.22392926187534       10.48759148496490
H            3.24270857881892       -0.73965217844154        9.74127435842421
H            0.45448155417180        7.48285296335760        6.78748443155146
H           -1.74585040753197        0.00890061904298       10.05014308955572
H           -5.15251937313794       -0.73897461409187       16.72256700551271
H            6.04904731229418       -0.44978900342216       12.28187404075323
H            8.51859924549756        0.56539133487315        6.26975344074366
