84
 energy: -18.269425320048 gnorm: 0.000965260815 xtb: 6.5.0 (97a52f5)
C            0.91784978849814        1.62138827590449        1.68019791941846
C            0.02298061806044        1.83354465332146        0.69557415354972
C           -1.39713646849567        1.74737982713821        0.86031625011453
C           -2.08586449757817        1.52858442388602        2.02743702016752
C           -3.48537925029419        1.48669771080133        1.86756696878197
C           -3.90866424877237        1.66741590638339        0.57371330537311
C           -5.27355097672081        1.65585585032936        0.12238225634444
C           -6.38486319271056        1.50451177570307        0.91503936360705
C           -7.60369670074891        1.51789968508924        0.20764676202668
C           -7.45982062635260        1.67810253771735       -1.14802374433762
C           -8.49865156233989        1.71860260742036       -2.13269216620591
C           -9.81457212934887        1.62709018047761       -1.85837892370951
C          -10.88345793430657        1.64570774642008       -2.83732971489093
C          -12.21449470721002        1.63044677247929       -2.40657243852873
C          -13.25140522863169        1.64131955594956       -3.30686636772453
C          -13.00366220869805        1.66519946726809       -4.67639538210881
N          -14.08584373493972        1.67199023600589       -5.61994500437245
C          -14.19720423958921        2.50760773858570       -6.75320999841951
C          -13.37274966236999        3.53063860421578       -7.22160272350405
C          -13.73409367580644        4.20273873022225       -8.36378420075929
C          -14.90814711374116        3.87921161515730       -9.04944100715809
C          -15.73889758930539        2.88251048112075       -8.59610450325304
C          -15.38471725860891        2.19217769324710       -7.43594123402679
C          -16.03044858034781        1.12714921028180       -6.70548119908562
C          -17.21403401455066        0.42139532650766       -6.92670215252589
C          -17.56312425797213       -0.57381309207225       -6.04572843783736
C          -16.74995757347988       -0.88068027950335       -4.95132690372467
C          -15.58255818614122       -0.19424372993159       -4.72087326237888
C          -15.21781598125204        0.82656820057504       -5.59869679412694
C          -11.68183322953619        1.67800320213482       -5.11307240555338
C          -10.64252389402994        1.66917733960805       -4.21515706825230
S           -5.76609842909011        1.82786096720189       -1.54346577489128
S           -2.52463700353268        1.91121592792853       -0.46221652371653
C            2.35909333319680        1.69635671292957        1.54174538399042
C            3.17565192647087        1.27739422424467        2.59750121079106
C            4.54423926579690        1.32854286255253        2.49874798432279
C            5.15671119135531        1.80620938904942        1.34363530889746
N            6.58770705258641        1.85637723219532        1.23957875780204
C            7.36203014231478        1.41649063582805        0.14274364044887
C            6.98835350122478        0.82820351462464       -1.06553622535004
C            7.96760004902361        0.47664997821889       -1.96250490272310
C            9.31829764056876        0.69416698331341       -1.67707369640648
C            9.70604890390547        1.26152681756897       -0.48690493126624
C            8.72153195147566        1.62328923254788        0.43377417352496
C            8.79445874590498        2.20915100071057        1.75130985403040
C            9.87262959192151        2.62187628008470        2.53540588436410
C            9.61892444565773        3.16492098425394        3.77194962156061
C            8.30905799588102        3.30699198669557        4.23828921511613
C            7.23839140226941        2.90424806070893        3.47788305274168
C            7.47733722118674        2.34159904263544        2.22398860493706
C            4.35077443024484        2.23207630864546        0.29111921613670
C            2.98129206810105        2.17852368917693        0.38514325228627
H            0.54610724301842        1.35436345219971        2.65304274621796
H            0.37511479712974        2.06232363696560       -0.29366308142753
H           -1.60340974540492        1.40183724117879        2.98359627703080
H           -4.16442906809114        1.31874216105913        2.68852043453275
H           -6.33001142118555        1.38199029885672        1.98527350461007
H           -8.56084811362923        1.40334469449984        0.69124114427103
H           -8.18078757893192        1.83192924188680       -3.15280598533757
H          -10.11188215965077        1.53245559548939       -0.82968410361226
H          -12.42119005901345        1.61351224231931       -1.35018017356142
H          -14.27091932642646        1.64925511891839       -2.96318767763633
H          -12.47663274129506        3.78536290505380       -6.68482339696921
H          -13.10384341364728        4.99318797679632       -8.73740630401048
H          -15.16645143453758        4.42176534823209       -9.94410045211308
H          -16.64759902117585        2.63092280188317       -9.11397557827352
H          -17.83038440227111        0.65947466819785       -7.77559224622067
H          -18.47358676106652       -1.12860105324265       -6.20269863437847
H          -17.04328082132761       -1.67108067173146       -4.28016256640752
H          -14.94662131965320       -0.43711816818142       -3.88886530470165
H          -11.48627620929055        1.67468507392171       -6.17103105241244
H           -9.63116599383580        1.66876063984658       -4.57985419809826
H            2.71612412549528        0.90240800287279        3.49585584559690
H            5.16169974647935        0.97971653989553        3.30780591141496
H            5.94928871921722        0.64990626060510       -1.27604260432749
H            7.69158111627837        0.02445000592112       -2.90111044988013
H           10.06574752445448        0.40968515109204       -2.39944540819543
H           10.74369868417409        1.42582089941619       -0.25555674215451
H           10.87733249608401        2.51311320362493        2.16664809598041
H           10.44022984317234        3.48824086410602        4.39016472512279
H            8.13765897435721        3.74189909423214        5.20925967877000
H            6.22885151129513        3.02599076523152        3.82673320590911
H            4.81986581639846        2.62355027272559       -0.59443239127482
H            2.38102188351857        2.52612565230097       -0.43642469185943
