124
 energy: -23.252291614686 gnorm: 0.000942859764 xtb: 6.5.0 (97a52f5)
C            1.46138009805178       -1.98872620353546       -0.22293273256743
C            2.91621775100630       -1.67307584377623       -0.53426103676116
C            3.32762313963208       -0.26794133689298       -0.09064968647653
C            4.79183677444010        0.05034892613445       -0.39499216020742
C            5.20789027516303        1.45239095999208        0.05144904035647
C            6.67374324151276        1.76354340138286       -0.25253034196239
C            7.09648457486177        3.16418208760346        0.19162223238453
C            8.56214778555942        3.47061928504769       -0.11859312444454
C            8.98884023510021        4.87120566512646        0.32117969468804
C           10.45454287689228        5.17564545882960        0.00929575141970
C           10.87601251886283        6.57961965967973        0.44243091247776
C           12.34410981636254        6.88328154697026        0.14619763134734
C           12.77395717268431        8.31380446310570        0.51816136826270
C           12.61289844362147        8.61216669751657        2.03443779047459
C           11.35845559953591        9.42562709800264        2.35425529949781
C           11.18663746010740        9.71448229557337        3.84401697127617
C            9.91987684642714       10.51699384778162        4.14134552941928
C            9.69915257527413       10.76988212513124        5.63244156055918
C            8.40616075885538       11.53465718405953        5.91778440103635
C            8.15198832198070       11.75354879522257        7.40926146826063
C            6.84345713209840       12.49439059921207        7.68748252418608
C            6.56966835400119       12.69267293549778        9.17923421377274
C            5.26420329837810       13.42628761062341        9.44593219207476
C           14.20474215476964        8.60697406167558        0.05049551288803
N           14.66779208575307        9.92799128997048        0.49236244206520
C           13.96219470901363       11.14220957540690        0.30208943036476
C           12.83844168443592       11.61393821979758       -0.40096731043927
C           12.41142485679567       12.93790946160152       -0.27185637650940
C           11.28762317943587       13.34976567853803       -1.08658324207160
C           11.10272051145681       14.58131236416609       -1.61233773375505
C           10.00156176283261       14.99090731755968       -2.42432298234117
C            8.92555394272788       14.24964436289435       -2.79884143914364
C            8.71694391056389       12.92052355680082       -2.43839410749812
N            8.55239954020567       11.80923715658338       -2.13607110073943
C            7.95303522128717       14.84422336843552       -3.60087454581506
N            7.14432991592387       15.34570312521057       -4.27077537764686
C           13.07787271968776       13.86057659536071        0.66088212849582
C           12.65126124548673       15.14902657159734        1.00149650084628
C           13.35063821991839       15.90968266768949        1.91893737107716
C           14.48598521876436       15.43392400788307        2.56303603321554
C           14.95723084661304       14.15231447322307        2.31152296104611
C           16.10423265387057       13.51293751668239        3.00757671554062
C           16.90078998591114       14.12490669099745        3.96599696762212
C           17.92351654933390       13.42186457248462        4.59089857704479
C           18.18800878546230       12.09605816986316        4.30717795940679
C           17.42903889748503       11.40113115694102        3.35737478767309
C           17.58137941238307        9.98492466270358        2.98909896829768
C           18.62180935392160        9.21805615330570        3.61871935142487
C           18.92207866102092        7.92140160458979        3.38735766054117
C           19.97002975503617        7.18813882700606        4.02457655856798
C           20.85045409902642        7.64004583733297        4.95688481857115
C           20.87119631926787        8.94066012548871        5.45525544288832
N           20.86762840535385       10.03342384547897        5.85546852972868
C           21.80515279898383        6.75625961195720        5.45697826472339
N           22.59928596886917        6.01363140281232        5.87136721784969
C           16.73088837195066        9.39090057827426        2.05295830761362
C           15.72585096991919       10.13867480212706        1.41168358604353
C           15.65003129012941       11.48203463306198        1.77385256717069
C           16.41924332207274       12.15364704066953        2.72511228318022
C           14.60254133845454       12.08259520436544        1.10819607320070
C           14.22171978735116       13.40468792865886        1.34774190878462
H            1.18261241279276       -2.99463210084537       -0.54373295432603
H            0.79029974599311       -1.28717415120417       -0.72112906104990
H            1.26314833334349       -1.91902093363054        0.84785619637556
H            3.10424503118109       -1.78262186603174       -1.61030637916029
H            3.57291810815244       -2.41064712802443       -0.05473378197712
H            3.14170144389052       -0.15242897842871        0.98378209496061
H            2.68122262503265        0.47462540114998       -0.57345600827341
H            4.97702301492136       -0.06307213658003       -1.46979270067377
H            5.43719201800292       -0.69447933491492        0.08571910892957
H            5.02221939256159        1.56705051117521        1.12599882116899
H            4.56512639533078        2.19846835579287       -0.43074529784705
H            6.85842747152231        1.64772627842768       -1.32715011599701
H            7.31546279343027        1.01621368023452        0.22918352795685
H            6.91541843067196        3.28006919928852        1.26684803165417
H            6.45430006310137        3.91214713862938       -0.28842625151786
H            8.74259820417238        3.35237619144135       -1.19365448036071
H            9.20387037554932        2.72285145560712        0.36234670149934
H            8.80897439396640        4.99024682872860        1.39632368259963
H            8.34748868028359        5.61927953452513       -0.15984163855125
H           10.63635905434693        5.05129581525187       -1.06477586102072
H           11.09666562418616        4.43196263532538        0.49605418265471
H           10.68024580497928        6.69904258210367        1.51397660750665
H           10.23965983735974        7.32268044177778       -0.05272870002070
H           12.54242786501208        6.71088513194366       -0.91791064596543
H           12.98327272233417        6.16957932417665        0.67680762232318
H           12.10799513045559        9.00760005924314       -0.01789624940858
H           13.49017312161825        9.16206914091998        2.39388971103269
H           12.61822277593445        7.67542591432757        2.60240089783161
H           10.46988709101256        8.90702557643360        1.97775740089821
H           11.38653616701496       10.37252197556945        1.80168822789996
H           12.06457595549321       10.25168655367444        4.22213605658000
H           11.16514863028596        8.77052230106595        4.40136409370221
H            9.05054907972649        9.99127540740238        3.72839568380786
H            9.95484535549726       11.47313647691300        3.60543577695513
H           10.55397470866586       11.31776785471136        6.04632982135645
H            9.68542629684865        9.81336344888563        6.16836822208696
H            7.55824998582626       10.99577005616273        5.47824726639486
H            8.42776877012343       12.50151846120409        5.40099876226853
H            8.99071589002053       12.30544773416778        7.84995325411315
H            8.14329410520287       10.78635802462895        7.92580826680938
H            6.00881188208349       11.94881418041627        7.23120610106972
H            6.85704978466867       13.46780380117074        7.18286735323580
H            7.40840156999102       13.23681284613580        9.63260627783423
H            6.56178407717929       11.71511916140015        9.67882726458962
H            5.26802927490946       14.41695879577636        8.98843872481016
H            5.07854743626608       13.55815106410442       10.51387562537456
H            4.41444245654066       12.88280336522051        9.02958824072766
H           14.28299002390558        8.55304888789942       -1.03836367052021
H           14.88465529633650        7.85261061856818        0.45183033573573
H           12.33217661214169       10.95660919330902       -1.08274770858553
H           10.58628326225607       12.57655578830601       -1.34171145733087
H           11.88121141139570       15.30806493170262       -1.45260228188797
H           10.02214632421760       16.00785266732244       -2.78246986160845
H           11.74177125622944       15.53574735981620        0.57946066772732
H           12.99547476885299       16.89949774842305        2.15475171504788
H           14.99153615629549       16.05345725137115        3.28190005814272
H           16.71923206703992       15.15136292959199        4.22992885046886
H           18.52588131303624       13.92690642013122        5.32823166247584
H           18.98431834633636       11.59713340363677        4.82927364843295
H           19.21774490699628        9.74028268725779        4.33810802908858
H           18.33462211859716        7.38589353414665        2.66290048212334
H           20.07974953519381        6.15582951340009        3.73267466956305
H           16.82736371115848        8.35282951188677        1.80310117133800
