141
 energy: -22.379271948621 gnorm: 0.000471484853 xtb: 6.5.0 (97a52f5)
C            0.65946748874210        0.30856075870624        0.21538298615406
C            2.20156262215330        0.21578369483282        0.22204045140238
C            2.71880772707352       -1.22266470530023        0.03459703094357
C            4.24475451466182       -1.30867193420866        0.01519034190763
C            4.76463609035849       -2.73633573558679       -0.15704310247805
C            6.29137767180796       -2.81563919007445       -0.17220646134804
C            6.81909783672974       -4.24193353977267       -0.33004428877633
C            8.34620330189685       -4.31249035689218       -0.33843083496611
C            8.88347616142724       -5.73595964847881       -0.48764347847047
C           10.41103456640985       -5.79629083641272       -0.48890915644221
C           10.95881408009940       -7.21656209060904       -0.63069916251492
C           12.48678661235508       -7.26608097248170       -0.62374210474365
C           13.04545528700114       -8.68279487943780       -0.75788443234077
C           14.57361081716756       -8.72128754592669       -0.74022377354739
C           15.14309207407649      -10.13410791004314       -0.86792096569924
C           16.67084673632678      -10.16170896930307       -0.83668217473945
C           17.25070346210931      -11.57003784805317       -0.96010382931095
C           18.77850389655721      -11.58598290630147       -0.91393837218113
C           19.38912354047562      -12.93924422226425       -1.03877967441668
N           20.72030502833742      -13.18124504522528       -1.07422877643900
C           21.00740469401670      -14.53618157582432       -1.18602589279989
C           22.34539852006626      -15.04700438716660       -1.24172128837545
N           22.65154601033099      -16.34998095136007       -1.35293020443868
C           21.76099637900229      -17.50449675371622       -1.44252505264010
C           22.48411636546854      -18.82086000678180       -1.56303388324668
S           21.28800196690316      -20.21017743545192       -1.66640100626892
O           20.52717480731644      -20.11831765892221       -0.38620889860623
O           20.50334545840684      -19.90978589856680       -2.89936558745535
O           22.18255754826055      -21.39666378198157       -1.77319537402057
C           23.38652083786467      -14.06780363671344       -1.17226910868807
C           24.77877094260440      -14.21878031465866       -1.19907333358107
C           25.35093131008108      -12.94920998582667       -1.10325622544555
C           24.32440430596782      -12.00233070881053       -1.01492162632588
C           24.40795597627363      -10.51876199107340       -0.90078767326560
C           25.83026946146609       -9.96305079745156       -0.82713191163830
C           25.86599659841971       -8.43989420701329       -0.70232147853938
C           27.28477464865137       -7.87484399182697       -0.63726640327860
C           27.31612144622140       -6.35124069114026       -0.51054618293503
C           28.73474709084706       -5.78365934684047       -0.45414780682368
C           28.76704096032104       -4.26017734811504       -0.32563042589846
C           30.18673845906083       -3.69425612385121       -0.27772460002692
C           30.22283812734342       -2.17113800018593       -0.14668867844838
C           31.64419873040136       -1.60877462658420       -0.10616000353160
C           31.68490908503565       -0.08618443563061        0.02833483049712
C           33.10785686989191        0.47256380775736        0.06315496466176
C           33.15221232742365        1.99466003831109        0.20135915897956
C           34.57613546340650        2.55101901221111        0.23216845214158
C           34.62237193125899        4.07272764207543        0.37358366580395
C           36.04671837235217        4.62815045694592        0.40178700747820
C           36.09468918429060        6.15028834746079        0.54571517803631
C           37.51415623202896        6.69579388207427        0.57194006822913
N           23.16684298914243      -12.70304454498015       -1.05966986907548
B           21.77229568283493      -12.06253380116696       -0.99426247582509
F           21.61204138973305      -11.20682337132612       -2.07800276514775
F           21.63473973005843      -11.39247973437494        0.21594794169889
C           19.75629156278983      -15.16946142396939       -1.22035736897736
C           18.76876392345486      -14.18854850130002       -1.12876116135566
Na           0.92793746181543        1.76386400593364       -1.57467161137137
H            0.28668606375435        1.37516835092418        0.39295338188852
H            0.22769963888778       -0.31966477863289        1.01334818462922
H            0.22354001451325       -0.06829115447259       -0.77033274290807
H            2.60613722217753        0.63202359411660        1.16529596049160
H            2.63068683777070        0.88198553550046       -0.60170881006561
H            2.31309627038215       -1.64147478858080       -0.89379204669359
H            2.32255000076216       -1.86132352180497        0.83284311121175
H            4.64842241055926       -0.87991550719023        0.94038411681500
H            4.63878153870892       -0.67399915062737       -0.78778165516135
H            4.36349250982220       -3.16615668252198       -1.08277234918032
H            4.37087197372470       -3.37088815129812        0.64604714386296
H            6.69079701010048       -2.37665158709150        0.75000436707657
H            6.68432634582220       -2.18644933221228       -0.97993759073104
H            6.42414236798090       -4.68164524950533       -1.25367894639756
H            6.42565840098666       -4.87172943543399        0.47683642988374
H            8.73916094813041       -3.86680278127965        0.58338051709267
H            8.73878828204648       -3.68464029776662       -1.14741028375705
H            8.49553775547794       -6.18218459028513       -1.41121621583662
H            8.49043869759066       -6.36485767638509        0.32023368153556
H           10.79674007548715       -5.34469618984993        0.43308105221470
H           10.80301891229190       -5.16860805816531       -1.29830017578528
H           10.57887712988579       -7.66847618770959       -1.55480461698172
H           10.56598103141033       -7.84554604779831        0.17717893841027
H           12.86436784199703       -6.80875897496918        0.29881441413729
H           12.87867964472147       -6.63825293978798       -1.43309932087115
H           12.67507613532232       -9.13992797296137       -1.68333977437550
H           12.65155710026104       -9.31236314101336        0.04906391718652
H           14.94146590718920       -8.25973786699459        0.18417785869321
H           14.96671642150980       -8.09210101906154       -1.54796402908149
H           14.78413558557198      -10.59484103885289       -1.79618178034229
H           14.74654350681388      -10.76573994151936       -0.06378190772461
H           17.02731656554194       -9.69827471551131        0.09118754536928
H           17.06672111012855       -9.52942124875171       -1.64059029232687
H           16.90540990613701      -12.03112623966854       -1.89309081004545
H           16.85151770830880      -12.20410008516954       -0.15954183995255
H           19.12587162191579      -11.13190801495288        0.02078499276152
H           19.17961587832489      -10.94879346206983       -1.70994181844353
H           23.62532833068425      -16.64061200843690       -1.38680402683791
H           21.10113223540766      -17.36517604378643       -2.30663432081952
H           21.11968783654121      -17.51561612306127       -0.55366685181869
H           23.13396540954118      -18.99180134733554       -0.70532979000812
H           23.11297762881060      -18.84354411125382       -2.45256319383234
H           25.31279183991973      -15.15032174534195       -1.28000019419217
H           26.40606653172840      -12.73225129634594       -1.09777946366631
H           23.84223834942882      -10.20607441566830       -0.01604615892822
H           23.88003711789210      -10.07394636511935       -1.75166488627715
H           26.39278483125139      -10.27294724697432       -1.71579402179763
H           26.35844786638417      -10.41491045365119        0.02086994124762
H           25.30578720109628       -8.13087660793013        0.18839048508953
H           25.32949587141425       -7.98951067115321       -1.54614534275815
H           27.84420328686691       -8.18165755647316       -1.52929984649196
H           27.82257595991144       -8.32577813984145        0.20549384758089
H           26.76112027996175       -6.04490121757083        0.38436890746112
H           26.77305985898904       -5.90106986471970       -1.35030425719739
H           29.28858770650861       -6.08880982166187       -1.35015317714842
H           29.27866534479057       -6.23517167434361        0.38428382900065
H           28.21817780906577       -3.95475286289870        0.57333640006705
H           28.21889284394675       -3.80856595214483       -1.16125789630292
H           30.73415342736761       -3.99868879921212       -1.17788022645994
H           30.73555569160568       -4.14808424766711        0.55621679760093
H           29.68011950408840       -1.86618360841487        0.75612562343153
H           29.67077432042784       -1.71676197240027       -0.97818963629431
H           32.18543528597339       -1.91242425863489       -1.01033472677020
H           32.19697154799006       -2.06593930340875        0.72336408077255
H           31.14755822672256        0.21791044945922        0.93463340045208
H           31.12980633409915        0.37162745591827       -0.79923491359240
H           33.64395343045129        0.17004569804032       -0.84445395395414
H           33.66369118939384        0.01210672979057        0.88880274292424
H           32.61893308735997        2.29742673531749        1.11052867845470
H           32.59469441545319        2.45564456067647       -0.62284430849075
H           35.10853679110991        2.24985724269822       -0.67806958917083
H           35.13434393362107        2.08805782354294        1.05481635666519
H           34.09173253235127        4.37382375773623        1.28486164295055
H           34.06285585826623        4.53588398589817       -0.44805378569999
H           36.57676633516956        4.32811845416562       -0.51021568589590
H           36.60675318390479        4.16337691483417        1.22218848932722
H           35.56009665117264        6.44482948709381        1.45841014003667
H           35.52859680349766        6.60987083100515       -0.27519681877631
H           38.08286242080244        6.27611928279720        1.40358757801737
H           37.53419676035841        7.78286176398121        0.67568719648475
H           38.05085308639033        6.44356067617566       -0.34432061975141
H           19.57086196556935      -16.22560311639522       -1.30198130206897
H           17.70555433795695      -14.36196794543279       -1.12761934073934
