94
 energy: -17.503209097351 gnorm: 0.000724243060 xtb: 6.5.0 (97a52f5)
C            0.83540007723677       -0.29692036307647       -0.36262087012573
C            2.28172930029942       -0.18266531767284        0.09369009312614
C            2.90948271829267        1.16663780395521       -0.26027348492176
C            4.36281391508080        1.29162903606728        0.19779005390895
C            4.99168902192127        2.63588867050990       -0.17036668143277
C            6.44363347160513        2.76297102022490        0.29086054562169
C            7.07838388690302        4.10141714362239       -0.08824600528395
C            8.52415243782738        4.23144414176980        0.39132559260725
C            9.16336545309120        5.57003888094525        0.02069185964426
C           10.59289436124389        5.71042420986537        0.54449572782473
C           11.22945801014670        7.05872568705522        0.20574452716310
C           12.63205237093285        7.21732735784634        0.79346860620442
C           13.26050684872578        8.57895625562659        0.49470555772310
C           14.62543508153666        8.76075186185792        1.15886295157318
C           15.24258429158718       10.13584446988267        0.90313064691967
C           16.56800063206363       10.33567221795192        1.63740842859638
C           17.18068993127122       11.71637532440274        1.41062148782248
C           18.45945441267056       11.93482493699929        2.20197989403614
N           19.02053396244914       13.25847597311388        1.98315842669220
C           20.12002294051390       13.37672948968352        1.12046315927215
O           20.59694512395015       12.40206178420460        0.56189094236351
C           20.67892527873492       14.71669536634934        0.91443942083454
C           21.77615152196650       14.89591254917923        0.10202529011352
C           22.31723194897965       16.15022010781353       -0.10214091212767
C           21.78034920542512       17.28519239301025        0.49763213428794
C           22.34673710398234       18.60998361098711        0.29233111041774
C           23.46754476671516       18.81929700415171       -0.50538622201506
C           23.99785764443705       20.08017422974781       -0.69662521596109
C           23.43455584882666       21.18684184205485       -0.10209546816909
C           22.29376994160831       21.02837036803663        0.72146585222079
C           21.69846925391485       22.15229186235625        1.34372373724946
C           20.58892587963290       21.97566355391583        2.13943527942365
C           20.04961266246085       20.72074505667054        2.34369750839692
C           20.59909557902336       19.58402713156652        1.75871828298442
C           20.04127131419480       18.25749780383630        1.97498568394285
C           18.93326601232739       18.04546018891108        2.78950404857494
C           18.41172201140538       16.78266256852230        2.99146453273810
C           18.96929066957036       15.67699944703999        2.38948813205571
C           20.09511042324887       15.83899789722314        1.54804380184833
C           20.64116789443046       17.13291185682789        1.33908612525754
C           18.40448332854134       14.34409940554487        2.62206242984386
O           17.43346799205301       14.18890170559165        3.34489583956640
C           21.74410761169734       19.73512258541637        0.92491477617266
C           22.26261217133091       23.49215432835156        1.13858333701273
O           21.76646783763201       24.47546213131882        1.66331078238236
N           23.38277191137063       23.58481037798342        0.32244904482103
C           24.00905207750951       22.52118810497890       -0.31462786962664
O           24.99172231796665       22.68269398547078       -1.01939003375746
H            0.39834810986372       -1.26312000667098       -0.10234230129157
H            0.75322384480164       -0.18011698667037       -1.44452785801698
H            0.21640608815156        0.47766460317506        0.09306205447592
H            2.88171796259060       -0.98854919444662       -0.34864832329928
H            2.34914330987899       -0.34042663393231        1.17797778786615
H            2.31456967175154        1.97575304047011        0.17992171481674
H            2.85067637737009        1.32609633237671       -1.34354894000911
H            4.95638306888283        0.47749853155913       -0.23485022163124
H            4.42124243811023        1.14243535327054        1.28255235659971
H            4.39652885550422        3.45051581976811        0.25914253917551
H            4.93634548888119        2.78291662235120       -1.25552265920471
H            7.03682047191484        1.94258151103083       -0.13027216555039
H            6.49700976108525        2.62537145032109        1.37742289815346
H            6.47915196216402        4.92217915730023        0.32350278417652
H            7.03691116849671        4.23480770529554       -1.17575001238251
H            9.12418787433237        3.41069199039222       -0.01912288824358
H            8.56187693710690        4.09631718980474        1.47880779837157
H            8.54815582457162        6.39023073809745        0.40943907938621
H            9.15357975179446        5.69652377426273       -1.06837517920644
H           11.21378292369136        4.89867878642402        0.14732419090274
H           10.59801367197850        5.56744315001703        1.63161725254671
H           10.58657447342527        7.86865291017760        0.57038069608229
H           11.26545923503917        7.18960088158396       -0.88218522494230
H           13.28330061132320        6.41886826293044        0.41882179486526
H           12.59064892467023        7.06559232770627        1.87859514996437
H           12.58371059344158        9.37495120274513        0.82743642893218
H           13.35280616824695        8.71607556002187       -0.58919203301931
H           15.31166844792249        7.97760458896668        0.81541529282439
H           14.52815986962364        8.60079269243094        2.23929866599721
H           14.53547870602585       10.91695234325587        1.20638735000830
H           15.38778775839254       10.28329515774682       -0.17345803755461
H           17.28070640279654        9.56083908600200        1.33146820364806
H           16.41678010467387       10.17659622161402        2.71163893405317
H           16.45684736550285       12.49387440880742        1.68139129198836
H           17.38104159353102       11.86853690677820        0.34386066092747
H           19.21388018767898       11.18882854014369        1.93232746173387
H           18.27258882002807       11.81848355536586        3.27430834233657
H           22.20895700140572       14.03250348677939       -0.37376992083547
H           23.17391861057976       16.23829515905132       -0.74410188408277
H           23.94413745600669       17.98666877574698       -0.98851630400151
H           24.86646381153728       20.21666562432067       -1.31790273934279
H           20.14579502706810       22.84022853087339        2.60339760943330
H           19.18267994098406       20.63413094880934        2.97196865032888
H           18.46381187200253       18.87603594161983        3.28302890635742
H           17.55520838725901       16.64314614570444        3.62869644718905
H           23.77236460979919       24.49888975890458        0.17991146157416
