101
 energy: -17.222172457647 gnorm: 0.000788014798 xtb: 6.5.0 (97a52f5)
C            0.58671986687482       -0.38317702166371       -0.09587158811385
C            2.10570649583369       -0.36283788171958       -0.16705141552291
C            2.64500014321646        0.80781991509085       -0.99080353983827
C            4.17171264086284        0.83456002181842       -1.06591834787069
C            4.71091534021736        2.00410334635980       -1.89009720218172
C            6.23729579693982        2.02211113692185       -1.97138736232181
C            6.78212885980714        3.18197105822986       -2.80551618123603
C            8.30778281725973        3.17787838884666       -2.90210526260869
C            8.86279304815165        4.32521875198069       -3.74655529802931
C           10.38652687048510        4.28905923680150       -3.86631274263831
C           10.95347077481119        5.43017475549777       -4.71113542484979
C           12.47406615366062        5.36262196110652       -4.85509695887831
C           13.05087510305595        6.49877873854792       -5.69988933645008
C           14.56821534024267        6.40728487403320       -5.86114763795020
C           15.15304401650350        7.53364026103574       -6.71325405590290
C           16.66607852175228        7.41584225175390       -6.89325230390620
C           17.26122688160826        8.53141277097960       -7.75024760271678
C           18.76095762670294        8.37045825283648       -7.96542411657632
O           19.31480235538303        9.39450229217618       -8.76508864009647
C           20.62077568169131        9.10888620931204       -9.06866695369731
O           21.20962934378435        8.10790435589298       -8.68515742022792
C           21.30297325159254       10.08606878044409       -9.91240113699196
C           22.54822745973911        9.88353183109715      -10.36813470238409
C           23.26672963574605       10.79028377438575      -11.21335641000728
C           24.55225901808588       10.55900959501335      -11.74075694498321
C           24.89754715222182       11.65573011491291      -12.53165436413076
C           26.05767783895590       11.89476706896188      -13.30003944814788
C           27.15300730704520       10.89871005627625      -13.38985744264637
C           26.96461258254635        9.69785702420876      -14.10357291877543
C           25.67060477718734        9.39915790148229      -14.77912399534582
C           27.99234161522725        8.77563247493825      -14.16486571653185
C           29.21680891634074        9.00805375705093      -13.55798882113417
C           30.31903354529193        8.00939229950561      -13.63849550206819
C           29.39708447272142       10.19409216347344      -12.86490205082294
C           28.39164624406401       11.13684458074168      -12.76094661220438
C           28.64128209840520       12.38950777137837      -11.99418839440224
C           26.09922004132828       13.11227064225696      -13.99138323145271
C           27.08648533477358       13.64703692954187      -14.85442283991972
C           26.63918959187847       14.87972652216797      -15.29423995657835
C           25.37940230944466       15.13107305351344      -14.72388816547044
N           25.08088992892652       14.07379944471661      -13.96059729696477
B           23.77820666334834       13.90659245515251      -13.15749616989741
F           22.69806433522653       13.94234316622303      -14.03055154773485
F           23.70149452675207       14.91233106117555      -12.20185789313769
N           23.80695439271741       12.54109753444188      -12.44909496725156
C           22.83149638995539       12.05896472094810      -11.68523760310961
H            0.21499151948875       -1.22224536713569        0.49601806211851
H            0.14639542687048       -0.46281134179080       -1.09119798818857
H            0.20081859418251        0.53291294632698        0.35439061463821
H            2.47642355950039       -1.30525167372756       -0.59099734344218
H            2.53045547219245       -0.32010393498839        0.84442753669073
H            2.28077587478614        1.75256447608966       -0.56985299269000
H            2.22753341593859        0.76759545910836       -2.00401130090589
H            4.53557821288526       -0.11032086832620       -1.48695519740980
H            4.58971552830070        0.87476215663948       -0.05294660209577
H            4.35291589403375        2.95006988904889       -1.46662789543236
H            4.28910798647118        1.96637625067708       -2.90157561957231
H            6.59319193566094        1.07218938187868       -2.38786094864544
H            6.65960317605617        2.06566151508595       -0.96033301569076
H            6.44082447027838        4.13422699165254       -2.38241485129586
H            6.34976055726701        3.14557487462063       -3.81256185063103
H            8.64520673712379        2.22099314270023       -3.31798077403159
H            8.74066081944948        3.21902574736214       -1.89544510885775
H            8.54755989099917        5.28481133986937       -3.31982419634886
H            8.41455568911324        4.29635395941797       -4.74688929405847
H           10.69699532239676        3.32804847287471       -4.29353694369530
H           10.83507853524081        4.31383518148253       -2.86601833004313
H           10.66579398145559        6.39307239256153       -4.27245382377181
H           10.48930072144329        5.41862756594834       -5.70455208602870
H           12.75771137278211        4.39879544733440       -5.29451039078891
H           12.93858599341442        5.37011247196344       -3.86184159344371
H           12.78410300391808        7.46389085197284       -5.25287065494441
H           12.57562567346391        6.50029566009202       -6.68815652486430
H           14.83156409989179        5.43887620909530       -6.30319501636587
H           15.04433992431292        6.40783500164869       -4.87332747330337
H           14.90815855235794        8.50314398804325       -6.26351284501671
H           14.66563047505346        7.54267602651351       -7.69544797099539
H           16.90589738852169        6.44370496029263       -7.34039945054391
H           17.15448301836898        7.40555102831444       -5.91153616822239
H           17.06186587559525        9.50639050524994       -7.29203534454823
H           16.75953975675978        8.56391800246542       -8.72377097190478
H           18.97867515025948        7.41175826259724       -8.45281255390466
H           19.29652237235919        8.36784029203621       -7.00807213663098
H           20.76787133981484       10.97806415261502      -10.17610009528194
H           23.04317482676845        8.96951211329307      -10.09170320273502
H           25.15683953084377        9.68449120358266      -11.57795030203250
H           25.12697305071607       10.31366059560572      -15.01772072093794
H           25.03310508373515        8.78526909126910      -14.14211701933419
H           25.83147504569381        8.86057561970830      -15.71365937376045
H           27.83840712249839        7.85684900750099      -14.70238422342889
H           30.04054157157822        7.15785683262462      -14.26026492480353
H           30.57210800023429        7.63076783855567      -12.64749992511575
H           31.21654615761449        8.45576483829685      -14.06830009376072
H           30.34365503643104       10.38294667615179      -12.39013641765820
H           29.17967423295731       12.17987217631280      -11.06918623320697
H           27.70860022229508       12.88573833491601      -11.72517085207735
H           29.23793269866513       13.08971773876291      -12.57969176066177
H           28.01443684828265       13.16864157817583      -15.11775865300049
H           27.16761564775187       15.53936393507075      -15.96378421563576
H           24.75232239396149       15.99702271649039      -14.85640622955817
H           21.90019210364138       12.55743988617542      -11.48111318827370
