52
 energy: -11.052608195348 gnorm: 0.000216312365 xtb: 6.5.0 (97a52f5)
C            1.06770937069981       -0.18161693469305       -0.50005172162362
C            0.14188913631148        0.73906338751778       -0.84047727717928
C           -1.27112120008756        0.54868390777592       -0.72524919158513
C           -1.93053582837206       -0.48160128827694       -0.10017980380023
C           -3.33811126662369       -0.39178786139763       -0.16671659259529
C           -3.81234584419258        0.70489434974763       -0.84791406222629
C           -5.20819809025462        1.05174860744898       -1.08347653407930
C           -6.21169345716225        0.25269234671369       -0.56767834073779
C           -7.56048910624914        0.53226336658915       -0.77751989572259
C           -7.93641435530778        1.61720362331288       -1.51000065495187
C           -6.96606910807644        2.47849505640857       -2.06396909944993
C           -7.34273662934907        3.60741970908577       -2.82763177763093
C           -6.40251222606254        4.43750354345315       -3.35771601414699
C           -5.04478530962206        4.18207355627660       -3.14979638673619
C           -4.65357473568106        3.10167547164460       -2.41981224930376
C           -5.58979955943415        2.20811619502714       -1.85260031189874
S           -2.44848500182411        1.64079298956475       -1.40664954042783
C            2.47979331373800        0.00047914022085       -0.63756187231869
C            3.14932297917253        1.15756541922774       -0.95371688545168
C            4.55239840821612        1.01376367022040       -1.01985493109867
C            5.01277629272399       -0.25639560444085       -0.76228317927466
C            6.40128469988611       -0.69943685323195       -0.76049011752412
C            7.41423492080297        0.21267498684279       -0.99188274449789
C            8.75612880460185       -0.16199740911230       -1.01077234525918
C            9.11544883255309       -1.45868024343685       -0.79998882225662
C            8.13479682971533       -2.44293600008747       -0.55530134954247
C            8.49392246107678       -3.79315145860219       -0.33751402247619
C            7.54368024592794       -4.73938953644561       -0.10141914447232
C            6.19302522091777       -4.38359785180297       -0.06885830586942
C            5.81872317067186       -3.09110703993696       -0.27511134061808
C            6.76564977985831       -2.07334867829419       -0.52837675157888
S            3.64118784169627       -1.28457690158505       -0.43055263559236
H            0.73812651229633       -1.13686193174127       -0.13254163059573
H            0.46968642795503        1.67162765551533       -1.26361825411473
H           -1.41889596424089       -1.28595662618753        0.40477231545041
H           -3.98002372899999       -1.13398512295496        0.28037419202670
H           -5.94949574314200       -0.61234963874281        0.01433205872920
H           -8.31068828866479       -0.11777351181473       -0.35737726499617
H           -8.97892714936182        1.82979003404579       -1.67345507002878
H           -8.38948321022125        3.80229433451631       -2.98620830987612
H           -6.70272296110262        5.29370289249936       -3.93950418646561
H           -4.30672295826411        4.84424609989051       -3.57246647010307
H           -3.59898184018456        2.92188630681384       -2.27321257831310
H            2.64890360817582        2.09737857492396       -1.12704597664474
H            5.20147168979371        1.84133651061347       -1.25782728619182
H            7.16518837849667        1.24465601090637       -1.16147877283303
H            9.51417533000150        0.58179648821541       -1.19521467247790
H           10.15256542781834       -1.74650956537867       -0.81730598402316
H            9.53528066213889       -4.06474187690243       -0.36253000947277
H            7.83042070954936       -5.76567402744860        0.06041530030208
H            5.44693135401347       -5.13863475508688        0.11854466738374
H            4.76927115371076       -2.83857351744510       -0.24813816580449
