146
 energy: -25.829333163569 gnorm: 0.000811635986 xtb: 6.5.0 (97a52f5)
C            0.65563111550901       -0.33626985484530        0.31033924145968
C            2.14969934070366       -0.33194780540246        0.02516030707396
C            2.72699629494126        1.08014756210944       -0.08664570740340
C            4.22711134025664        1.09366089275798       -0.38246122670865
C            4.80371325937456        2.50646596367206       -0.47639199688018
C            6.30104710059540        2.52420475563680       -0.78517176450847
C            6.87958175525317        3.93799456939027       -0.84678466004676
C            8.37418018655845        3.96220460892936       -1.16821998467967
C            8.95600595506078        5.37591391572392       -1.18563498575946
C           10.44866147819351        5.40783034187389       -1.51498857804135
C           11.03493416353738        6.81927938228281       -1.48029239285204
C           12.52693827483908        6.85930160682225       -1.81130406701530
C           13.11837673943747        8.26583917764721       -1.71874027052610
C           14.61067167889431        8.31387997859523       -2.04590267718378
C           15.20593283160304        9.71231897220461       -1.89438699716786
C           16.69430804513936        9.76736079890022       -2.21024108155740
O           17.23165888520407       11.07305444778863       -2.00656289993420
C           18.62895823001358       11.16523488247674       -2.10467750047403
C           19.44529730443098       10.15068856988124       -2.60100486227860
C           20.82090793256247       10.28384882740448       -2.67293882595007
C           21.60907260641318        9.24256070745840       -3.18486154832271
C           22.32399781863371        8.36038397263072       -3.63727096425747
C           23.16247692386428        7.36021275048244       -4.16753987733314
C           22.76120175689699        6.00577915014647       -4.15526075777379
C           23.56138823917889        5.02997904361188       -4.66493310357852
C           24.82113908913795        5.34752874928648       -5.22379511183538
C           25.67752269789220        4.36089544971937       -5.76179567868236
C           26.88514698947665        4.70438961412490       -6.29284575868711
C           27.29678304186615        6.04311985438317       -6.31408870577156
C           26.49577840376232        7.02011483016942       -5.80368891879601
C           25.23707068629730        6.70029315820136       -5.24428831120740
C           24.38262067434635        7.68685422689255       -4.70600712531826
C           21.43577134767868       11.47648777526899       -2.22772287150029
O           22.83529486614059       11.55888439830977       -2.30309879806084
C           23.40776841416693       12.70060820634222       -1.66834364816394
C           24.92833160399360       12.63189006478306       -1.62884659700420
C           25.55928521739935       13.83681562760482       -0.93375438376010
C           27.08387867640206       13.75714285533478       -0.85849060595602
C           27.70791525762045       14.96035877762614       -0.15149494588182
C           29.23089696480659       14.87541127368850       -0.04927373068129
C           29.84718592705012       16.07928320961695        0.66365745368246
C           31.36905571256910       15.99445262031259        0.78185534333739
C           31.97906753392629       17.20151907996216        1.49499121172425
C           33.50065463984694       17.12028279865926        1.61966119100888
C           34.10625920584923       18.33157885290184        2.32933146029356
C           35.62795144009195       18.25474539346357        2.45495782890385
C           36.23087097270921       19.46982628008190        3.16041474695735
C           37.75294964748726       19.39659428494170        3.28447124054378
C           38.35620078445980       20.61390405961429        3.98740767193442
C           39.87044463161043       20.53602283389971        4.10577218676580
C           20.61808014555946       12.49583568692793       -1.74309473910647
C           19.24156716265029       12.36516092410224       -1.67678753643145
C           18.44860030991285       13.40909878517775       -1.18010048198512
C           17.71480150909314       14.28869791277964       -0.75156562904757
C           16.84268916698409       15.27659482901502       -0.25945401339007
C           15.78033884931320       14.93495425062230        0.57290515792926
C           14.92088196292638       15.89598731843208        1.05085904338907
C           15.08361785572166       17.24334601347502        0.71679001504578
C           14.14496158998622       18.21872865817633        1.24706256112805
C           14.10640197838175       19.55447850871365        1.03464418519666
C           15.00226864074889       20.26396274221601        0.23036184793716
N           15.75034752816923       20.84975506432526       -0.43949724119254
C           13.09729979222686       20.29442312989575        1.65901247003740
N           12.25486468405182       20.90250116265769        2.18114706190790
C           16.15218853533901       17.57730776084643       -0.11776806764802
C           17.01208969353191       16.61712230720698       -0.59448435433198
H            0.25586497086883       -1.34960338899386        0.39021696350838
H            0.10170467953064        0.17399404825891       -0.48001974214601
H            0.43087194589925        0.18008388109602        1.24561214046653
H            2.35925699985714       -0.88365970388066       -0.90105535394315
H            2.68596899708862       -0.88146844019940        0.81045781908226
H            2.52967151483398        1.63245936124681        0.84036922949406
H            2.19311714020909        1.63527539418512       -0.86777645309955
H            4.42378030391996        0.55232225255002       -1.31598015824606
H            4.76049929492191        0.52937678705299        0.39235893206294
H            4.61522454311789        3.04308666460412        0.46153097633680
H            4.26324169877720        3.07480860939796       -1.24324208565960
H            6.48834333673859        2.00677601662179       -1.73399212549315
H            6.83971243654374        1.93898570113833       -0.02984236536400
H            6.70063568077439        4.44917341444694        0.10709252624539
H            6.33307107410156        4.52789941185893       -1.59277997789075
H            8.55185492769429        3.47714726873818       -2.13579899586451
H            8.91761643474224        3.35010328693614       -0.43804374063528
H            8.78441258531282        5.85451234201218       -0.21361472045261
H            8.40625146960121        5.99250527834828       -1.90733571155742
H           10.61929246348324        4.96014424638992       -2.50165191553728
H           10.99417800118641        4.76618546098187       -0.81222287237465
H           10.86719977453162        7.26077929651390       -0.49030794284325
H           10.48546475473962        7.46473003770668       -2.17636886206398
H           12.69414927905876        6.45236915221246       -2.81593262322245
H           13.07125922113460        6.18713094303689       -1.13686007142627
H           12.95117263411698        8.66710495050108       -0.71177425211783
H           12.57213921231708        8.94116891714550       -2.38835065236750
H           14.77821672368879        7.94821490683498       -3.06623990456700
H           15.15172282250315        7.61272397872003       -1.39887378590370
H           15.04313084118280       10.07770979057525       -0.87397362799470
H           14.67244924764001       10.42043605602921       -2.53864476370704
H           16.87535690553843        9.47827909040002       -3.25144373860690
H           17.24364559996328        9.06754737093334       -1.57035286643721
H           19.00711642949580        9.23458229141786       -2.94934792850701
H           21.80303656151625        5.75665279884618       -3.73199957199605
H           23.24307618263066        4.00179767903265       -4.64883249370599
H           25.36235071679852        3.33173547795309       -5.74605241946087
H           27.53060863137408        3.94310035075432       -6.69967052592376
H           28.25427947402474        6.29868394782808       -6.73791326180209
H           26.81253557101532        8.04880344899692       -5.82028252494469
H           24.69375462048257        8.71612654060827       -4.71777746268834
H           23.00716065261898       12.76355692261999       -0.65028962492506
H           23.07975074516727       13.59445498431668       -2.21054556967229
H           25.31440808479516       12.54129468142368       -2.65042857823593
H           25.23328032220340       11.70735395102168       -1.12551754182431
H           25.14715267627635       13.93350177622951        0.07804134575729
H           25.26288918837678       14.75747003270038       -1.45086073013135
H           27.49958853114607       13.66563489691810       -1.86909821277315
H           27.37879891225498       12.83463824052766       -0.34405732055947
H           27.27820839230132       15.05923578512775        0.85267154268905
H           27.42464943133846       15.88199168669795       -0.67408897152010
H           29.66343973774801       14.77909764580640       -1.05240596959218
H           29.51390749565952       13.95360363396594        0.47313605570643
H           29.40649682759958       16.17957890577777        1.66291143176271
H           29.56985845747734       17.00026885012359        0.13673204857858
H           31.81134134730025       15.89375959953112       -0.21662487979609
H           31.64681389843625       15.07480290518611        1.31089282864427
H           31.53357667734398       17.30343792395823        2.49189444860071
H           31.70224234532295       18.12045823956976        0.96433385979055
H           33.94679237353758       17.01612225218560        0.62327991207970
H           33.77825082251390       16.20348773023740        2.15363699103726
H           33.65968680165322       18.43565510944471        3.32555874310800
H           33.82732235250505       19.24792351824061        1.79523530199708
H           36.07460263913926       18.14815563050167        1.45904950850557
H           35.90760220188081       17.34043533821422        2.99212167191847
H           35.78493732303123       19.57567159849890        4.15674246082389
H           35.94912085826209       20.38381959865472        2.62377354777427
H           38.19855584673924       19.28887883906599        2.28818739697927
H           38.03495518189293       18.48354305808600        3.82258924401368
H           37.90441201329064       20.71833781439171        4.98269302338559
H           38.06599989788515       21.52478305005873        3.44729508403802
H           40.17703329507295       19.65414758283485        4.67102062603774
H           40.28827566506472       21.41064179160579        4.60913285775807
H           40.33997411465267       20.46743695863901        3.12288925693988
H           21.05354846310345       13.41949936094199       -1.41180001252974
H           15.63936575394955       13.90054933476817        0.83699605040144
H           14.10461776785773       15.61201759698567        1.69307025165626
H           13.38072059890960       17.81916388671291        1.89216143362832
H           16.30687506084330       18.60237944824181       -0.39516478053918
H           17.83065845418140       16.89227837343982       -1.23785606149882
