77
 energy: -10.545437839779 gnorm: 0.000689927190 xtb: 6.5.0 (97a52f5)
C            0.81254649910225       -0.35868521395116        0.06616312984580
C            2.29183008105973       -0.11907682906106        0.32497488024791
C            2.85290148648829        1.05552878728477       -0.47834791379503
C            4.34104170203614        1.29722687002008       -0.22473774462405
C            4.90473399425570        2.47030086995930       -1.02728053453130
C            6.39360833964257        2.70484240749108       -0.77247123980571
C            6.96488896148601        3.87655036351959       -1.57159400265963
C            8.45299010879264        4.10586366905790       -1.30706659620803
C            9.03551402956514        5.27353602192002       -2.10364362843154
C           10.51997062776079        5.50326507556287       -1.81910083379351
C           11.11547328328473        6.66372803988289       -2.61646590126047
C           12.59395613625194        6.89937890100042       -2.30702726255199
C           13.20237066851666        8.04929503190010       -3.10983080267725
C           14.67340488350877        8.29474730532130       -2.77474412662521
C           15.29051494638551        9.43591462798939       -3.58174314629006
C           16.74636357540462        9.69672738990835       -3.22627473368064
N           17.32506985837035       10.80561509198024       -4.00781692632805
C           17.15908313102621       12.10503427492172       -3.57715405655744
C           17.68851336272597       13.13683542301520       -4.28081825926290
C           18.42080505089052       12.89331229189998       -5.46778070619538
C           18.96881391030989       13.96935291603656       -6.21078352766231
C           19.66735883842794       13.81985786460256       -7.33775589429044
C           20.22006087245917       14.82116138367273       -8.10169591487015
C           17.04463722931570       23.45749021973845       -5.49589291485436
C           18.23017621097934       23.81418723940598       -5.95638656656692
C           18.99454935071390       23.01953734318769       -6.72571796836508
C           20.17925515415155       23.30794235837389       -7.21390542926632
C           14.95352204848016       12.03963156815139       -7.55795351522762
C           14.88929182141821       11.78475706155281       -6.29002613526260
C           18.57757592227050       11.54954495823188       -5.88320185985073
C           18.03557891917828       10.53868626693920       -5.15913097211538
H            0.42620793292721       -1.19904932905292        0.64625073047873
H            0.62656366091987       -0.57365942205558       -0.98718144425576
H            0.21964963122192        0.51976806925474        0.32521445121072
H            2.86712340076474       -1.02419267351988        0.09151931775334
H            2.46352367220117        0.05884577729558        1.39431924334718
H            2.28709806769559        1.96483254706529       -0.24423774488512
H            2.68558023889526        0.88267068019111       -1.54788026737296
H            4.90596346879942        0.38733761760082       -0.45883000288757
H            4.50845193284887        1.46972803813013        0.84485158871534
H            4.34286923827302        3.38168647167517       -0.79177467470178
H            4.73658846409707        2.29921055442829       -2.09695506698369
H            6.95424192385443        1.79243320993613       -1.00713587603739
H            6.56043317582626        2.87458908512890        0.29767356084222
H            6.40454272595298        4.78956467482435       -1.33881302880365
H            6.80263371741567        3.70624849304143       -2.64229496789397
H            9.01162666193532        3.19065668086306       -1.53547404926866
H            8.61269584459521        4.27725398741623       -0.23610138569659
H            8.47241765836025        6.18782841399090       -1.88283242114364
H            8.88794387971878        5.09849787891099       -3.17570852028981
H           11.08087028778762        4.58572527607382       -2.03212427611855
H           10.66394959070665        5.68294663680482       -0.74726510073515
H           10.54694933426478        7.57914111842524       -2.41510923568882
H           10.98806021855160        6.47781418369360       -3.68924837340609
H           13.16013284774003        5.97989453816756       -2.49618708851144
H           12.71735696799001        7.09446130501423       -1.23533305267696
H           12.62724625533711        8.96589427083919       -2.93412037250892
H           13.09710894242557        7.84690214643438       -4.18206265785478
H           15.24745152349034        7.37557384199352       -2.94024369344168
H           14.77510636626618        8.50598584192935       -1.70381877541480
H           14.70916138241003       10.35259619403196       -3.43114249776965
H           15.21018075392588        9.21858909440081       -4.65287085019695
H           17.34790637440276        8.79840830789235       -3.39107539072380
H           16.84572915208990        9.93304969430764       -2.16303067117561
H           16.59856139628064       12.27825585161315       -2.67603574413468
H           17.55475396627732       14.15027007036802       -3.94517676611221
H           18.81057019723607       14.96683987769882       -5.83994217513270
H           20.77841002713586       14.44844383519186       -8.91112032316910
H           20.92210492838555       18.91441587437264       -5.77730619008505
H           20.61431719613014       21.86151985017188       -2.65784012951677
H           18.60397173640614       24.79188052069960       -5.70011936381123
H           14.93127203358451       16.47077138380300       -9.91374765811399
H           20.72794250081515       22.63999907497942       -7.80982645645525
H           15.84653464507625       12.05680937823068       -8.11149011292477
H           15.72647241273064       11.57057763584307       -5.69290162453897
H           19.12997116817345       11.34033987489259       -6.78221964104709
H           18.14398148747006        9.51491401811182       -5.46970012140835
