82
 energy: -12.447263908007 gnorm: 0.000666365966 xtb: 6.5.0 (97a52f5)
C            0.66055057090004       -0.25740071415686       -0.24760369727954
C            2.18026200937334       -0.25891298197222       -0.19267792427076
C            2.76008780877174        1.09898863312767        0.20591975467191
C            4.28778799962689        1.10586134209517        0.26928247794963
C            4.86109750047235        2.46771524280743        0.66077099712920
C            6.38828043270212        2.48105068363864        0.73498831972641
C            6.95037172194572        3.85057325396738        1.11582604130569
C            8.47671228600963        3.87760112907961        1.20336808491351
C            9.02092247398570        5.25949009931581        1.56515997750472
C           10.54604439463960        5.30883125206409        1.66218436190387
C           11.06656521494900        6.70686439907051        1.99577912480600
C           12.58991345552119        6.78479114389738        2.09930704162784
C           13.08273847631678        8.19940079597223        2.40386331024650
C           14.60320072035879        8.30777637645501        2.51793249279397
C           15.06598708446785        9.73746853636538        2.79978803667943
C           16.57795023024745        9.87071254866475        2.92858253911971
N           17.07458283527374       11.25043281814377        3.14220890389264
C           16.22532594040815       12.32684750800449        3.33261268872948
C           16.71624910454734       13.57624736243263        3.51486945108578
C           18.11378622269145       13.81403039627649        3.51844452756045
C           18.59613478625758       15.13265093969769        3.70123926946392
C           19.91345490444945       15.50813693016069        3.72081389652910
C           20.39057100197112       16.84399812685624        3.89613345915410
C           19.53149573033191       17.94491519521977        4.06762326772884
C           20.02910128200202       19.21276105186506        4.22669134215570
C           21.40765401890652       19.45907157854259        4.22328486621589
N           21.91336924909221       20.76721770069808        4.37479458871631
C           21.02676891178448       21.90619462774669        4.61333437165118
C           23.34760036889962       21.04564204272973        4.30578816720285
C           22.26606131438000       18.36496714563035        4.05784703963693
C           21.77454551604301       17.09504363856417        3.89784668934184
C           18.96461495588048       12.69484249895015        3.33172772957309
C           18.44261251846859       11.45707761149165        3.15114302856202
H            0.25986476496132       -1.23135840568242       -0.53549806420786
H            0.29288356870395        0.47509610843410       -0.96779864142949
H            0.23144405352445        0.00090374887660        0.72170632246506
H            2.59267463651603       -0.55729417518108       -1.16506732973206
H            2.53152851963755       -1.02368657409697        0.51186896805711
H            2.35085687001508        1.40237660860065        1.17669370568706
H            2.41812627223964        1.86553481424948       -0.49933823938764
H            4.69813138018706        0.79864693737341       -0.69975591807478
H            4.63043799398630        0.34414464694140        0.97931664805285
H            4.44418647696382        2.77767762792941        1.62618986536484
H            4.52167829383694        3.22742668142931       -0.05307211989665
H            6.80708063739123        2.16551512833124       -0.22772647468183
H            6.72916742662585        1.72880570452835        1.45584268022716
H            6.52272227150930        4.16900934620950        2.07377639166239
H            6.61178964463589        4.59952444158696        0.39029682087927
H            8.90695680463842        3.54977586550150        0.24989487405938
H            8.81792020391708        3.14120511700989        1.94018477684896
H            8.58276912306137        5.58895313632994        2.51462241519492
H            8.67805265849861        5.99187986011187        0.82486581865497
H           10.98749098751290        4.96599630626214        0.71916407211804
H           10.89251281131333        4.59424903120902        2.41780790530913
H           10.61788388261617        7.05019361733098        2.93535921556235
H           10.71564211145306        7.41687864701859        1.23765506170063
H           13.04270482739163        6.42879936520769        1.16662409591036
H           12.94466043193741        6.09389728121516        2.87286689901068
H           12.62017163532918        8.55622788632471        3.33162771406840
H           12.72536171030963        8.88525281771230        1.62670791171832
H           15.07040484639331        7.94264137033697        1.59591374579955
H           14.96419082381063        7.63858082572841        3.30756996215380
H           14.58614686835941       10.09785176759174        3.71680065351522
H           14.70850777603790       10.39756523554528        2.00121422263290
H           17.06028218721580        9.48099671303292        2.02728882459367
H           16.93910452389925        9.25267085887941        3.75568038902478
H           15.16386216423132       12.16255540337267        3.33394662441671
H           16.04567320965772       14.40572053707338        3.65817486718011
H           17.85076303794651       15.89505103270829        3.83112630782860
H           20.66158566248823       14.74833621791972        3.59269160959932
H           18.46727919243664       17.79425049928436        4.07221292459316
H           19.34903755305926       20.03618982927764        4.35075291446712
H           20.41927731655117       21.72757506184965        5.49862933563180
H           20.37304848882835       22.05617559907825        3.75600515135435
H           21.59556234228028       22.81994967555853        4.77285739553146
H           23.85643384971415       20.59073137356734        5.15357963902951
H           23.54051257966022       22.11619226883534        4.32377681434800
H           23.76231764670153       20.64510536066573        3.38273423302930
H           23.32912131159929       18.52522469703547        4.06080182667684
H           22.45286515006316       16.26923004809529        3.76996353201723
H           20.03102117943489       12.82773085604051        3.33350444443299
H           19.08389124919904       10.60525428439789        3.00971498102699
