75
 energy: -11.376398306937 gnorm: 0.000439433685 xtb: 6.5.0 (97a52f5)
C            0.65521141777521        0.17375230468088        0.20063269931850
C            2.17299850282782        0.10547252649404        0.26358196695865
C            2.75417745112170       -0.99971614682138       -0.61943605567207
C            4.27944710137074       -1.08115064842106       -0.55309264739428
C            4.85655991101029       -2.19238974277881       -1.42977568619625
C            6.37981489313898       -2.29348578031578       -1.34625542255691
C            6.94907930740501       -3.41587066203753       -2.21364726436770
C            8.46881427085039       -3.54741538426522       -2.11070469680602
C            9.02174257785057       -4.68653075863822       -2.96670846065775
C           10.53686522704156       -4.85417825885024       -2.85021093547364
C           11.06530411228350       -6.01278965475365       -3.69538388670159
C           12.57435400432144       -6.22202367014529       -3.56921413750402
C           13.07293583432988       -7.39898953614287       -4.40722736987377
C           14.57325329978888       -7.65624582944595       -4.26961964405514
C           15.03867815899451       -8.84940092223703       -5.10330501781211
C           16.52023253827047       -9.15974799661869       -4.95337567349188
N           16.90767076533699      -10.33607245628879       -5.75362635699553
C           17.42052396926825      -10.17127076551296       -7.02508330366816
C           17.67455910883434      -11.24600254297029       -7.81108911095182
C           17.40496044555007      -12.55908318562877       -7.34942605964212
C           17.64428050496130      -13.66657023217468       -8.20021454135477
C           17.37878130688272      -14.97252661448349       -7.88756299849423
C           17.59020744156605      -16.09964684358841       -8.73050311001848
C           18.13580161601617      -16.00567188281994      -10.01898171210126
C           18.31509727631898      -17.12710783402247      -10.79433225618765
C           17.95706214905019      -18.37329058234218      -10.31121950142058
C           17.41726266990619      -18.50073119697197       -9.04826744486754
C           17.22215960808625      -17.38542547749765       -8.23766984872197
O           16.67935493339449      -17.49218240439449       -6.97123992087173
C           16.88085869507620      -12.69717663766677       -6.03917907624564
C           16.64310228542612      -11.60355505797672       -5.27463725765790
H            0.25441288361215        0.96567863980333        0.83619635046063
H            0.20493264457194       -0.76608684349174        0.52339888404955
H            0.31108712378820        0.36304991292631       -0.81713928167110
H            2.50039047801627       -0.04948220697689        1.29956151145297
H            2.60677649553338        1.06969571686577       -0.03065902926353
H            2.43875675672413       -0.84524515990766       -1.65784323322862
H            2.32223577147931       -1.96504573473618       -0.33076683129193
H            4.59407811406923       -1.23264238345764        0.48598937034470
H            4.71348180903381       -0.11806521824212       -0.84584498221888
H            4.55449378388300       -2.03413602572814       -2.47158273430620
H            4.40969222857989       -3.15232563938325       -1.14584739297620
H            6.68082070063712       -2.44665149159397       -0.30340675022659
H            6.83032160555955       -1.33735338202118       -1.63675080928924
H            6.66359779378377       -3.25367527046019       -3.25951551183338
H            6.48046100836644       -4.36681164681061       -1.93459926055619
H            8.75422930732161       -3.70231251804932       -1.06378157907920
H            8.94307679495634       -2.60264070835437       -2.40035504970475
H            8.74950422463078       -4.52336110757403       -4.01598769458320
H            8.52862686608579       -5.62501496558276       -2.68749332476494
H           10.81041277108583       -5.00966907085130       -1.80017356037219
H           11.03693760414716       -3.92355239534114       -3.14240641178642
H           10.80401960939223       -5.84880658953644       -4.74731509456456
H           10.54502025706133       -6.93582648214679       -3.41392106883422
H           12.83757765146675       -6.38098766667245       -2.51711007650463
H           13.10218467655586       -5.30727902175279       -3.86251883840859
H           12.82475453195985       -7.22990194904190       -5.46150976038580
H           12.52164032016306       -8.30433180952737       -4.12732141706164
H           14.82338099570565       -7.82326928657612       -3.21556436921959
H           15.13280763804417       -6.75947991845222       -4.55950004103869
H           14.81013038310894       -8.67534744715015       -6.16092880737429
H           14.45605890711910       -9.73691651473043       -4.83130926818357
H           16.77132882805566       -9.35191968665893       -3.90654893663652
H           17.12844662406527       -8.30425827899106       -5.25951516936726
H           17.60318517274244       -9.17216658941963       -7.37831047758269
H           18.07188659884692      -11.11132374735672       -8.80194150535304
H           18.05170970254844      -13.44844575392213       -9.16986189021025
H           16.95726148264268      -15.19340060375622       -6.92488587535701
H           18.41928974006183      -15.04451994433645      -10.40769884983486
H           18.73506524815154      -17.03707560720054      -11.78245206191942
H           18.10002544041532      -19.24794318360381      -10.92402217652985
H           17.13944588772653      -19.47096601308899       -8.67789507414313
H           16.47507520026426      -18.42679882186686       -6.77197000474325
H           16.66632003601755      -13.67448826296860       -5.64785293640987
H           16.23532691822381      -11.69889544753074       -4.28405424811270
