102
 energy: -17.279459251150 gnorm: 0.000487184772 xtb: 6.5.0 (97a52f5)
C            2.18839027955079       -2.51953126688308        0.31219465312959
C            3.22077355326691       -1.60060550083618       -0.32243872796207
C            4.14094301951904       -0.94240278734819        0.70704685605941
C            5.16988151170734       -0.00282561441035        0.07774663000346
C            6.07624036963986        0.66952120989791        1.10935922261879
C            7.07345889290572        1.64471965272727        0.48343353545416
C            7.94374292798387        2.35884481707743        1.51796496590144
C            8.89669259193063        3.37874918957707        0.89400358861834
C            9.71219853671807        4.15057127562613        1.93165537189427
C           10.59092299529581        5.23740334009542        1.31172174414470
C           11.31163746293170        6.09043132049602        2.35537012037559
C           12.07307338207113        7.26045248301598        1.74324842631909
N           12.64224196773012        8.17378095268797        2.75933195415070
C           11.68979669511666        8.82272645426576        3.68784843697410
C           10.41451478808725        9.33470466203534        3.02698185924740
C            9.44936432768742        9.98773533483715        4.01574579887487
C            8.14034678092858       10.42685886767612        3.35998847412970
C            7.13902282863005       11.01891107113656        4.35140502646806
C            5.81268857474388       11.40458504679260        3.69635728012939
C            4.78835346392223       11.95154264794307        4.69035452891528
C            3.45095353632181       12.29896167661114        4.03633706399182
C            2.41141220640326       12.81194594128879        5.03284005084564
C            1.06934442845553       13.14098566026759        4.37860203857630
C            0.02118908038041       13.63785398163548        5.37547517647622
C           -1.31254579188940       13.95662853947964        4.71785173570322
C           14.03382074241829        8.26280193352165        2.97305817627417
C           14.94957102764165        8.06946789011159        1.92334295515239
C           16.29628252796278        8.14191272079349        2.14039185988101
C           16.82667047909977        8.38650814800109        3.41913967530166
C           15.91916027229427        8.67919742019420        4.45800395274886
C           14.55028515571665        8.58393117027874        4.22227326925792
O           16.34179845808221        9.08264481083422        5.71398020302539
C           17.68222639551898        9.34597320132719        5.93446381663466
O           18.03977663051146        9.77382757622872        7.02378333492639
C           18.65829866203919        9.07310803159669        4.86988459712349
C           20.06946878915894        9.45543265847932        5.02293332262271
O           20.44746422046653       10.09434457657052        5.99575457817800
O           20.97838816004671        9.12040105419948        4.03378275818854
C           20.58570407207093        8.29945941877461        2.99010063514678
C           21.56669905211752        7.82344619014115        2.11196609414261
C           21.25476004205449        6.93005516240418        1.12231446569340
C           19.95433392104522        6.46709745700251        0.99742499491425
C           18.97298823558970        6.93815277515511        1.83279344454965
C           19.24615515292283        7.90838248224659        2.80744953212895
C           18.24183041824835        8.45626409240457        3.70311916535864
H            1.53963873795401       -2.98444240720377       -0.43321040503235
H            1.54971823684910       -1.97347854854458        1.00861796048913
H            2.66789344998987       -3.32124121185576        0.87632642346807
H            2.72008163297996       -0.82086312309567       -0.91127557101734
H            3.82815805660689       -2.15785654048501       -1.04759497274296
H            4.65560179985037       -1.71578086943123        1.28963136886134
H            3.53779936381175       -0.38979435693887        1.43738124685186
H            4.65298236938831        0.76430951875265       -0.51116858857547
H            5.78079979173036       -0.55468368169138       -0.64653341741536
H            6.61507879795724       -0.09395356801422        1.68300961497003
H            5.46073424728706        1.19870333606997        1.84663513547979
H            6.53088013798082        2.38828015350945       -0.11264443390082
H            7.71065118694120        1.11431137819060       -0.23417350684817
H            8.51420659435932        1.62257817438456        2.09658454717586
H            7.30057283393216        2.86108468826644        2.25065030218550
H            8.32210313268900        4.08623569840704        0.28410089176021
H            9.57050624921748        2.87690716658428        0.18950277459567
H           10.33055615650835        3.45667748303333        2.51342818797724
H            9.03182311229868        4.60621992494014        2.66124358343650
H            9.97143391752527        5.88590175753880        0.68054726957345
H           11.31991633670996        4.78646759202593        0.62808354228764
H           11.99760550886655        5.46984427335189        2.94387798540339
H           10.58075829906475        6.46405582725910        3.08060919824629
H           11.42612440382816        7.84147862356055        1.08079076020305
H           12.87214654862773        6.87647116299015        1.10593063920946
H           12.19833874142880        9.66298239756747        4.16816491823510
H           11.45215250693479        8.11424275044568        4.48603111965427
H            9.89870461627181        8.51331754473245        2.51839639506149
H           10.67263821149944       10.04491553370193        2.23275844944960
H            9.93229801975848       10.84622557663914        4.49730040537367
H            9.23240369006253        9.28701095865496        4.83091565654437
H            7.68367543388813        9.57042246907701        2.84928827150031
H            8.34956820111691       11.15323829495319        2.56558609567162
H            7.57819465592383       11.89404979377916        4.84477900823703
H            6.95329399441187       10.29946377142879        5.15782131352408
H            5.39215686531968       10.53229239461114        3.18165204649858
H            5.99176855670521       12.14275388790649        2.90548586941060
H            5.19621142234247       12.83679987494062        5.19272348888761
H            4.62597590913088       11.21893995620612        5.49002518857722
H            3.05666871375384       11.41693607603841        3.51750999619786
H            3.60822067190520       13.04591739580572        3.24907336107405
H            2.79943404475897       13.69950196588881        5.54667957875028
H            2.26181113135863       12.06704303439047        5.82352758184852
H            0.68837437392116       12.25513304107705        3.85645711361270
H            1.21679945288539       13.89250914419522        3.59381320600400
H            0.40743650040545       14.52395040408103        5.89594182496980
H           -0.11643852511837       12.88419253365233        6.16185180972698
H           -1.20135995285798       14.72905695236758        3.95504197930585
H           -2.05148836315714       14.31119245547827        5.43956912058259
H           -1.72992517381385       13.07641913347779        4.22592317484620
H           14.58223620121460        7.91935779336657        0.92401852436746
H           16.96061469364429        8.08781634198692        1.29668709034884
H           13.88801059265047        8.75628928821606        5.04856741831539
H           22.57952473420173        8.15869630005099        2.24917245980046
H           22.02319920275630        6.56582803182989        0.46018794531387
H           19.71743922163609        5.72754937595017        0.25000029165911
H           17.99182992696294        6.50130535030407        1.77992211804884
