124
 energy: -24.350630550447 gnorm: 0.000443792047 xtb: 6.5.0 (97a52f5)
C            0.76615846038894       -1.52070691174786        0.10610922335077
C            1.93615190241727       -0.74064635515678       -0.47344576002809
C            2.85876893443671       -0.16843291800898        0.60401770166540
C            4.03526222763520        0.62139188622757        0.02964452220214
C            4.95455929980354        1.19294922273388        1.10935677268972
C            6.12380101909434        1.99620067585002        0.53883203789279
C            7.04192472884479        2.56360212096747        1.62172995981857
C            8.19184478459261        3.39850304821459        1.05785963079040
C            9.09721683206674        3.97651691290550        2.14549089106592
C           10.21505751073864        4.85872036160200        1.59046256019306
C           11.09200754556304        5.46585725513495        2.68416186730182
C           12.15538754868154        6.41022268020108        2.14662278269843
N           12.93216144616426        7.03815406865885        3.20868209618458
C           14.33284794514869        7.06546937882795        3.24956996795306
O           15.10102106880767        6.55235570919485        2.45796573301227
C           14.68040064190055        7.84360606820857        4.44906677820259
C           13.51813645622413        8.24245257649848        5.06430756604233
C           13.54103798041878        8.94917485959943        6.29164828883075
C           12.33339716737005        9.29637631902772        6.94966076495848
C           12.34240080831043        9.82337450499206        8.19364068778844
C           13.56088742298038        9.95456525353460        8.91369260919475
C           13.55118843153186       10.30278589974576       10.27309647340476
C           14.68854142043351       10.27497770222237       11.04940929772590
C           14.58637482978985       10.51536599518253       12.50249197215898
C           15.18103019159806        9.64442438452813       13.41526390250137
C           15.05588981624218        9.84525748745283       14.76916481235374
C           14.32401220018988       10.92189248526230       15.26866415694286
C           14.17832875300052       11.13151635433891       16.72716430158540
C           12.95445330267353       11.51185628426711       17.27610068812630
C           12.81799465958942       11.70182166355335       18.63398390542610
C           13.89956664842605       11.51679301283486       19.47126644079940
C           15.11960059425994       11.14114643673914       18.94620547235591
C           15.25909415106774       10.94936766992027       17.58879348126107
C           13.72604721623321       11.79085459590565       14.35657453107370
C           13.85257249209992       11.59139285164061       13.00238529962013
C           15.92438203707402        9.89111273633004       10.44076790767801
O           17.14772547712230        9.86159989290010       11.14305240017655
C           17.48387048673497       11.08994061685964       11.76654823398660
C           15.92675601908453        9.54036215042562        9.09782095981040
C           14.78860992485964        9.61732046005485        8.28799844466788
C           14.79484662363030        9.25406996544009        6.87861215421468
C           15.99707274528257        9.09264944972180        6.07875386927452
C           15.94592305600813        8.26001410821993        4.93215062120502
C           17.13613173470580        7.90318293098749        4.24786022674554
C           18.32962328450415        8.42966442504123        4.60039675854700
C           18.40936796258499        9.43049083364033        5.60683894889071
C           19.60810302187733       10.12652743344201        5.82792394349002
C           19.68269465435026       11.21717940069114        6.66605084526302
C           20.93628473056048       11.99477025721533        6.74538111003163
C           20.93089188247087       13.37643018133703        6.55505008226048
C           22.09600525295967       14.10265535551138        6.61664989210139
C           23.31727047044284       13.47742295096196        6.86555845263265
C           24.57046729547615       14.26194843145669        6.94352168992917
C           25.75330526780793       13.78168467578038        6.38310528570966
C           26.91840766055641       14.51356798228159        6.45851880354006
C           26.92710882463932       15.73848774951182        7.09464688673994
C           25.76608238033050       16.23055624134296        7.65582289917608
C           24.59934576443732       15.50126611081650        7.58174809950648
C           23.32429009633613       12.09416416897786        7.04358044199349
C           22.15917356489702       11.36697974173057        6.98222828826011
C           18.49922989488950       11.64145432338253        7.34759401489200
O           18.47637688428011       12.72392332543726        8.25100518962955
C           19.45304424720209       12.64793509858682        9.27608627385162
C           17.31563941564805       10.95363888140642        7.11937392597312
C           17.23965927939750        9.81360724416923        6.31211242451998
C           12.37567109971501        7.74635531009888        4.28213505418491
O           11.19529063514222        7.92154783094976        4.51844543209672
H            0.11764940510015       -1.92655789554983       -0.67313055246754
H            0.15115396453258       -0.88908649165559        0.74931573764505
H            1.11297565857715       -2.35791557985690        0.71408913963338
H            1.56793886590223        0.07716481245615       -1.10655953982548
H            2.52012067543251       -1.38079506501669       -1.14756076720433
H            3.23511635616169       -0.98189001421849        1.23572408297548
H            2.28063054099516        0.47282387595673        1.28004288993841
H            3.65891336743043        1.43517863351074       -0.60157698917701
H            4.61454554101359       -0.01917643687481       -0.64595575725109
H            5.33801167547383        0.37836978404590        1.73527722270216
H            4.37234483509471        1.82541636831919        1.79017670654846
H            5.73905436212946        2.81367878621847       -0.08245961774556
H            6.70525652035220        1.36701801729301       -0.14545062544563
H            7.44425809284664        1.74500939476145        2.23049712326362
H            6.45369086886145        3.17364897627178        2.31782571846965
H            7.78688413306141        4.21364660075794        0.44624512904940
H            8.78658506928303        2.79061226467122        0.36568927994793
H            9.52903133835960        3.16193350849911        2.73910866450252
H            8.49281465637704        4.55579885047477        2.85382163065822
H            9.77927148032531        5.66160271954787        0.98392139574003
H           10.83543069958312        4.28026672751840        0.89568012230234
H           11.56845444393274        4.67079505140765        3.26916225104746
H           10.46428125668319        6.00887151670606        3.40016487977914
H           11.69681111371092        7.20317548477463        1.54830478136285
H           12.84464085201004        5.87908181479612        1.48295763570008
H           11.40504373371457        9.11355940345580        6.43769101429480
H           11.41818923758763       10.07723143466997        8.68353765189820
H           12.61060708745473       10.53506721796525       10.73921461168802
H           15.74457736043996        8.80749989909469       13.04013574394660
H           15.51264254108853        9.15777103083780       15.45979714531856
H           12.10700296518755       11.64298349159307       16.62566807102057
H           11.86440823998415       11.99256423087044       19.04345766989635
H           13.79138117929684       11.66525669443422       20.53327862349416
H           15.96484081611154       10.99849444034462       19.59945313911507
H           16.21368242964303       10.66738949809389       17.17930352333852
H           13.16808555704491       12.63359041050153       14.72637571693823
H           13.39020907358647       12.27385681273162       12.31036163975243
H           16.95013127577410       11.19939296294931       12.70954058459425
H           17.22775019457364       11.91872636661835       11.10527145512589
H           18.55586134589050       11.10470130515650       11.96585932009765
H           16.85379829314414        9.20031869170603        8.67763349860323
H           17.06200738397912        7.21323482135389        3.42574200513009
H           19.22377700286554        8.15465800645497        4.06800302466849
H           20.48265318938284        9.83885112397229        5.27260388369052
H           19.99294941670883       13.86911861699692        6.36458525792243
H           22.07494226792105       15.16737170434392        6.46139311000378
H           25.74530010269664       12.83255981610255        5.87569890319575
H           27.82434430129678       14.12959674331796        6.01880097238799
H           27.83919276795619       16.30967420725407        7.15348206604437
H           25.77260777785237       17.18596802670520        8.15451801561568
H           23.69786560112728       15.88015354853666        8.03141822536472
H           24.25731018409786       11.59797138396661        7.24708204306486
H           22.17771950745114       10.30111415977812        7.13068813753182
H           19.13883791437794       13.27438762151016       10.11149429829429
H           20.41605403881568       13.00572339243865        8.91503735134381
H           19.55078778828105       11.61599786522724        9.61577913653845
H           16.42856553922251       11.32626356011854        7.59457264004741
