106
 energy: -21.030775741049 gnorm: 0.000616965984 xtb: 6.5.0 (97a52f5)
C            0.46292622892570       -0.15278621033701        0.31331616340904
C            1.95853873426405        0.02855143473419        0.52269971985609
C            2.63149410102060        0.78134599064412       -0.62669641763809
C            4.13534607806880        0.96951197102358       -0.42281252512450
C            4.80249792165357        1.73734932626494       -1.56492831813368
C            6.30447745534476        1.93549199863029       -1.35664958595517
C            6.96431879562760        2.74078092943724       -2.47711454862594
C            8.46081810765933        2.96060552590482       -2.25268547522833
C            9.11217532742429        3.82014803084372       -3.33677858900470
C           10.59740761162395        4.07582485860925       -3.08019706955841
C           11.23783436213289        4.99869914157132       -4.11607549094525
C           12.69697697439697        5.30567243802979       -3.81772083829445
N           13.27993665926240        6.25543693704653       -4.75744150839233
C           14.57232563859094        6.13369104310478       -5.28455469738028
O           15.33907264168093        5.20137815530180       -5.13862715999216
C           14.81408833810587        7.37173353733404       -6.03920301488261
C           13.70227863591695        8.17161336784258       -5.93671711238883
C           13.68166965396114        9.47554488647937       -6.48861371541277
C           12.54750987758306       10.31150704734797       -6.32708065053031
C           12.57394867035068       11.60658504862239       -6.71116095705770
C           13.77556823406561       12.19230761239170       -7.19413521945245
C           13.86228357314173       13.57797426853640       -7.40090966089403
C           15.05285040036747       14.20428997471751       -7.69470427174743
C           15.10631550934453       15.67709359173596       -7.78111618851909
C           16.06329966965060       16.39828914611557       -7.06861715055860
C           16.10426389503653       17.77098990307632       -7.13267283780518
C           15.18753476987045       18.47266732444225       -7.90743318436849
C           15.23176408572016       19.87433187457586       -7.97308581305275
N           15.26876717218902       21.03381124228125       -8.02426199185405
C           14.22653350255720       17.75817154960587       -8.61421397407564
C           14.18392304541369       16.38511246410831       -8.55082260056451
C           16.23805245239706       13.41200148245203       -7.79549341128000
O           17.50126882636173       13.95869928040210       -8.10338824818604
C           17.53795028034815       14.68230720963356       -9.32118834512394
C           16.14677183025230       12.04345304461770       -7.59033809459086
C           14.93316648757850       11.38863887650036       -7.35674142500708
C           14.83852622142902        9.95103836142328       -7.15487236704875
C           15.88773397560636        9.00614441826949       -7.49483620475580
C           15.93165563899031        7.76276758812124       -6.81618629642212
C           17.05858959632407        6.91151957629380       -6.94357495650904
C           18.07086498277994        7.21447666081994       -7.78569997029204
C           17.98482628095046        8.34589843857274       -8.64174952798278
C           18.93940706174799        8.55686054463238       -9.64842552593857
C           18.79887333109132        9.53905875986817      -10.60361996162659
C           19.78136467634099        9.62058131081351      -11.70573636029758
C           19.37660444942028        9.48711855486225      -13.03329466039308
C           20.29173366845394        9.54680942758586      -14.05768086711291
C           21.64353838458231        9.73519719530928      -13.79197407368340
C           22.57637669166346        9.80096262367352      -14.83896881183841
N           23.34806562053867        9.85606386116494      -15.70470268863846
C           22.05247379811791        9.85709556268945      -12.46852074231582
C           21.13907643188053        9.79765279422422      -11.44246691223865
C           17.63980592425383       10.37566163333484      -10.56479318442812
O           17.38927064722587       11.41432631699512      -11.48031512986638
C           18.49945510282301       12.24935775490622      -11.75770385196189
C           16.69880863435192       10.15978457120355       -9.56832473421771
C           16.86419029866054        9.21037225588600       -8.55398563022051
C           12.70384563688788        7.48447050457809       -5.10497316559061
O           11.61043900612202        7.90578985742314       -4.78072619264407
H           -0.00423077906805       -0.69082588266659        1.14052720508392
H            0.25808173268889       -0.71300270654447       -0.60023705509751
H           -0.04153975187823        0.81022443069525        0.22078688099486
H            2.44291787471119       -0.94830205847530        0.64874425053157
H            2.14524239446645        0.56232230541194        1.46350452968978
H            2.15316935046510        1.75959006755949       -0.75415014185954
H            2.45179227979127        0.25074515207194       -1.56911318322070
H            4.61677559862096       -0.00840965618305       -0.30559153157667
H            4.31467361504413        1.49183656590143        0.52432719288045
H            4.31689230890826        2.71324454746499       -1.68247670624175
H            4.62750273256208        1.21490216623427       -2.51276722502081
H            6.79633532240571        0.96016897225021       -1.26382445542332
H            6.47754303839700        2.43544198438721       -0.39638015232509
H            6.46248383420100        3.71081827189288       -2.57404752720595
H            6.80416651624452        2.23844739674250       -3.43840908771682
H            8.97188623282896        1.99261582840545       -2.19116330759134
H            8.61732962869632        3.42886333769085       -1.27369077320528
H            8.58383677483245        4.77814120382877       -3.40918547760544
H            8.98078210820552        3.34582711822127       -4.31639309158720
H           11.13776227996800        3.12249259118573       -3.04892361284992
H           10.72395661183174        4.50887632678944       -2.08093646536260
H           10.67987704463916        5.94089619518873       -4.16637709690288
H           11.15092809023375        4.56125164823568       -5.11703799809887
H           13.29744965069186        4.39098977286126       -3.83999032793777
H           12.80287313140691        5.72248973914254       -2.81179880880466
H           11.66721117472933        9.88994193210062       -5.87407177174524
H           11.70635266434317       12.22992045130815       -6.58061854602427
H           12.98053824867116       14.17747016496070       -7.26362196446776
H           16.77761904114924       15.86040018572437       -6.46922677648323
H           16.85000432541089       18.31903804947101       -6.58253328588704
H           13.51354512603661       18.29677230093166       -9.21476968740364
H           13.44064105829080       15.84066587610013       -9.10714490532442
H           17.17177015126531       15.69731580684054       -9.17117213237733
H           16.92187310056996       14.17565348421568      -10.06550229072217
H           18.56955870043030       14.72632381610195       -9.67217794651537
H           17.05916531745265       11.47909259992123       -7.61557593131801
H           17.08214369534260        6.01005362227430       -6.35653371492320
H           18.92082745463328        6.55989797328625       -7.87152256172472
H           19.78074297051258        7.89047940402425       -9.71224170270191
H           18.33109274278912        9.34258235709014      -13.24472397969370
H           19.97007026166481        9.44972522417132      -15.08048764353862
H           23.09835503392601       10.00058535912132      -12.25728800617860
H           21.46343685636261        9.89657839018050      -10.42096732888572
H           18.13445439292486       13.23930967815543      -12.03277989009495
H           19.07281984008830       11.84768044200144      -12.59195049178853
H           19.13395261528892       12.33085289967582      -10.87403429413407
H           15.81098599927041       10.76236178776701       -9.58981515721431
