36
 energy: -7.474375453561 gnorm: 0.000802090188 xtb: 6.5.0 (97a52f5)
C            1.05259032059287        0.49233273906183        0.54883980924258
C            0.15911864571932        0.76964623964353       -0.42007920028497
C           -1.24706740835336        0.93944701574029       -0.20931747400325
C           -1.93648209000716        0.86588696353164        0.97514936582564
C           -3.32663160818234        1.08742273197619        0.85079580354229
C           -3.75537550161275        1.33874864208904       -0.43094786341973
C           -5.12219198869050        1.60616483041814       -0.86168061325831
C           -6.14464241489378        1.62804469163945        0.06846728610685
C           -7.46585715195063        1.88606817909932       -0.29175302684108
C           -7.79440108800855        2.12847782180406       -1.59105599786735
C           -6.80217919182448        2.11992481816817       -2.59366876435030
C           -7.12974070088072        2.36620315989287       -3.94703183660877
C           -6.16900714672467        2.35025132175736       -4.91196258493925
C           -4.83893909027198        2.08948432376939       -4.57335427122098
C           -4.49478209362054        1.85114965695275       -3.27803485630509
C           -5.45399772952140        1.85653792928231       -2.24038557466689
S           -2.37179117298279        1.28941494389624       -1.49534566493266
C            2.46232381828932        0.33330943920248        0.33286773533180
C            3.13994064460214        0.45272094845550       -0.85071863727340
C            4.53797012216323        0.23838363282048       -0.73124779088601
C            4.93329747510147       -0.04589666652760        0.53131825467487
S            3.58692286615768       -0.05545956300758        1.61368703908537
H            0.70437437795861        0.37927081831117        1.55956623608649
H            0.50739172176505        0.87573830424030       -1.43149676508605
H           -1.45948913349064        0.66215804866812        1.92097596254958
H           -3.98877440359141        1.06114118026845        1.70145258213135
H           -5.91945259617634        1.44143334084898        1.10294275799897
H           -8.23252270888387        1.89384372615161        0.46583360531515
H           -8.81541577480464        2.32875706626868       -1.86723097080894
H           -8.15520428148018        2.56713221903212       -4.20571404655218
H           -6.43179608047750        2.53930256522594       -5.94002345725652
H           -4.08479717679492        2.07712366077644       -5.34355868101027
H           -3.46077332797489        1.65063873133697       -3.03866279989620
H            2.66142175876778        0.69190555054484       -1.78751517410271
H            5.21754535724274        0.30082860977915       -1.56924956384200
H            5.94348475283319       -0.24290762110483        0.83747917753599
