110
 energy: -9.704111030905 gnorm: 0.044121226340 xtb: 6.5.0 (97a52f5)
C            0.97354485002705        0.46750661008333       -0.06835094537323
C            2.35648896296343        0.28848517022374       -0.02345039845626
C            3.06741369942222        1.25540262630441        0.71563798852189
C            4.45126781265300        1.05387491901287        0.87600373817383
C            5.08996711492772        1.94685461464182        1.74896967755132
C            6.48936367817493        2.01590486203155        1.75961522474359
C            7.01370378763617        3.02201685367656        2.57764028521325
C            8.40444265759125        3.11621115174840        2.71868539171530
C            8.86425079896281        4.09914429734730        3.61666528284796
C           10.25345783497089        4.30192259859344        3.67565949234576
C           10.68136369104288        5.16469214664411        4.69827303749153
C           12.06547578086930        5.36525853923187        4.79465941876447
N           12.47895843185503        6.00678277213747        5.91535132973791
C           13.79624807178066        5.96844055085821        6.23985650527306
O           14.64910976196091        5.43933027673233        5.54861602817001
C           14.08916274511827        6.59958970205022        7.50479566769598
C           13.33070783518725        7.61424007691905        7.85754809202450
C           13.40190506623440        8.29971507759606        9.01101751380815
C           14.19293259808096        8.00779983540068       10.06842273692033
C           14.30217476442106        8.65814608589691       11.18292937968083
C           13.66861434861038        9.79587610783317       11.54265611714998
C           13.67745223197332       10.39796155748564       12.73579512018648
C           14.25242453244495       10.02106564438169       13.85405315535465
C           14.97931374374281        8.87587230389173       14.13261887283399
C           14.57815914464329        7.61367846160705       14.23817496356087
C           13.37286827711100        7.09992046899553       14.13506336766577
C           12.25839836817815        7.71086387638876       13.79576948398223
C           11.05192981873577        7.16168156496485       13.76564223127257
C            9.54255151314582        8.69974015690275       15.37593572269659
C           14.36492498572434       11.56799347659135       16.83119368477483
C           19.73575352278422       10.20125882448975       14.31197936298201
O           19.00383111813891       12.09738032603323       15.90058637938921
C           18.86216074939554       11.18149870021591       16.78390020352836
C           18.69047195880131        9.91558812943638       11.22361981088854
C           17.57376835526896        9.35092887900466       10.84217395558404
C           17.60288476683971        9.15570441164504        9.52532689337101
C           16.51724018869956        8.64910075656175        6.23267301509723
C           16.97400281789335        7.74642519929596        5.43235726843234
C           18.00540433274527        7.84126565106984        4.56241238280183
C           18.92274046400071        8.80791344183002        4.42183069808925
C           19.15367022783419        9.81034037195432        5.23941594421688
C           20.05515545323103       10.79645795687027        5.03614586277615
C           20.40700463472647       11.72226870934087        5.87820336034308
C           21.24974253740070       12.72759688204502        5.58226677442658
C           21.62974976843937       13.03288219110718        4.33900402376558
C           22.66857388493262       13.73045696796122        3.93560561493345
C           23.68028637051957       14.26699877777222        4.69446580934287
C           24.66881003125414       13.64654513975728        5.37518392161672
C           24.88845980643033       12.31716122703611        5.43956398604555
C           24.23355156555807       11.35907402850073        4.89466894367656
C           19.51237191099415       12.83594501552105        9.00601383195760
O           19.25671841911599       12.64890984921132       10.24766706987204
C           20.26622287859391       13.89854663220435        8.80356580162018
C           18.42498722444627       12.80312559791480        8.26030830990701
C           20.87132271491007        9.23545981060481        8.50033547608244
C           12.11772320328130        4.39805952630901        9.73065000063825
O            9.86825847162630        7.96731678851713        8.47564736031256
H           -1.22403335089716       -3.00336843965815       -2.98775937597000
H           -0.96658993812945        3.04971167823930       -1.02724360041734
H           -1.23075983603682       -0.98080589122902        2.24174800239289
H            3.66041901864227        0.47347750863150       -3.01396076556553
H            3.76276732546896       -3.12256289945997        0.67210163970114
H            0.86763074540194        0.51421596343577        6.25799335528887
H            0.70561488837927        1.48320435003936       -0.20146331560517
H            5.51149153159709        1.40332464534711       -1.25156091479645
H            5.46207872746476       -0.93863404659883        1.45513942982373
H            4.48434905790348        1.76413566433486        4.13288814054441
H            4.32015462554064        4.29527532614979        1.64411251138436
H            7.77838004513583        2.40664120070346       -0.10195104490518
H            7.77040536801078        0.09696878390957        2.65178594629847
H            6.62217330016474        3.15038330498715        5.17074515901982
H            6.62705437751495        5.35871838570691        2.58263529674813
H            9.86500066593320        3.65489481615302        0.90547478398300
H            9.88007396002203        1.47764451480394        3.59516937619623
H            8.67922891713056        3.90641106834837        7.00261951876167
H            8.67228989058507        7.23820495077615        3.60648720862779
H           12.00108640894459        4.82205657761010        2.05193722451812
H           12.27921684205295        2.27475714430354        5.09000704624239
H           10.98369807913531        5.61907200335976        7.56975024966270
H           11.16332807119630        7.96399853967738        5.78296323845904
H           14.37132353217159        6.36452706801647        3.71148865656942
H           14.90847724407380        3.37782558117071        5.98803959232193
H           12.18790048130164        7.07453146133775       10.85238826782627
H           10.92937765490809       10.06261430749902       13.40792790285535
H           16.62905623104858       11.19206791252866       11.80586003585200
H           17.04688273616022        8.14490109033146       11.75302260591882
H           13.65637009066384        5.33767015185032       12.62619485759499
H           10.25183356219632        5.48890483799091       12.64751588873770
H            8.31377733170589        9.05142081705522       14.00901900642002
H            9.90059007486048        7.19743610614976       16.45311890286924
H           10.00505899416637       10.12768132615405       16.51684462121878
H           13.27034298511974       12.92184004531697       16.10137920086285
H           16.21290921077987       11.25822971810372       16.81043593061599
H           18.38817646233892       12.91202156278472       15.79631489988921
H           19.46356123363415       10.31691535813575       16.87092503579311
H           21.24533699573863       10.09343167799891       13.14790717844414
H           16.45694381048557        5.09461779052344        4.44533773326358
H           19.15493412946225        8.68637737743131        2.30875502390958
H           21.61237772219864       10.24119464793597        3.70304839761098
H           20.03127074438832       13.23250274912989        2.51945687306699
H           22.57634293577503       15.08596591406527        1.86224796000871
H           26.14652152796121       15.99391913137836        2.77916734991555
H           25.35904610590658       14.28370371569753        5.91884320557948
H           25.86451124263485       18.28671677820914        5.95908065192673
H           26.35797894418551       12.73713115393109        8.45064239735998
H           22.11913420925316       11.29622376132856        8.30751476830236
H           19.95923362272912       15.33839252235230        9.84494187251687
H           19.04057303668443       14.34612063920131        7.38654458092666
H           22.00256384746746       14.19084746955686        8.53051211455365
H           16.97997031689373       11.94031998452852        8.89770514973313
