108
 energy: -20.914268811293 gnorm: 0.000682853833 xtb: 6.5.0 (97a52f5)
C            0.21885361854718        0.25974833778912        0.04029760296075
C            1.70672985339500       -0.01260447118764        0.19938626582481
C            2.46460224752796        1.16544959483585        0.81465482743933
C            3.95975698030963        0.89270710894715        0.98345587681157
C            4.71653059554235        2.06082481025737        1.61719408460429
C            6.20682822313703        1.77379354710842        1.80501617888128
C            6.95964874671319        2.91699391432783        2.48726563378573
C            8.43878468510220        2.60268503811693        2.71456295367328
C            9.18208104950784        3.70644695173857        3.46793206078992
C           10.64146842627131        3.35075002630329        3.75176606433028
C           11.37021631962619        4.40567911175174        4.58304975719520
C           12.79438165450997        4.00327466134622        4.93301886449281
N           13.45131270894093        4.94724548188568        5.82903155327915
C           14.80460806558300        5.29556194204915        5.72488364768338
O           15.56875870436449        5.00517109886280        4.82480657838211
C           15.11283844873243        6.07051374951172        6.93562292671404
C           13.97911685265489        6.14943957649715        7.70585937111141
C           14.00353538521790        6.74909964487474        8.98861290478573
C           12.83832761321485        6.76892755659519        9.79652380027875
C           12.88701609562095        7.18145330048008       11.08169323936200
C           14.13009855304358        7.51072673866777       11.68704130783324
C           14.21157744711213        7.72364594586369       13.07140751753216
C           15.41527179926608        7.86259634864841       13.72597980532074
C           15.43877273919916        7.93006751065654       15.20064140010711
C           16.26594363731380        7.08442674675854       15.94042659586311
C           16.27417198604745        7.12872530756436       17.31364540655404
C           15.44856295190782        8.01672395220478       17.99693971169005
C           15.44672991181147        8.07897127327060       19.45601460472664
O           14.76939911595352        8.81185483345045       20.12627050306131
C           14.61488832995486        8.85284663523381       17.26573419838562
C           14.60613533223719        8.81039658365859       15.89215933113280
C           16.62209167821616        7.80542658243243       12.96102246246923
O           17.90177866122177        7.96386942793436       13.52864645232972
C           18.05098328819900        9.13092390109390       14.31890878965253
C           16.53542113876466        7.58823601144953       11.59293737038214
C           15.31763544390968        7.49902042036829       10.91057596416848
C           15.22940468311454        7.26870780562508        9.47580062052779
C           16.33643964957889        7.42916563499782        8.54894786042665
C           16.31501112992585        6.70574357832833        7.33023304645449
C           17.46587394911580        6.64860517119279        6.50388700265855
C           18.57572316652562        7.35815100790152        6.80239508652850
C           18.58360208391520        8.25770157505455        7.90260997764595
C           19.66367948632714        9.13030167695526        8.10310889017874
C           19.63794802329749       10.12795255986255        9.05201498309386
C           20.76100260385309       11.08181482447150        9.13996138896331
C           20.53256898061035       12.45799500079768        9.14954459317245
C           21.57797768744404       13.34704611722794        9.21952233852721
C           22.89155162074062       12.89018201613200        9.27567210235237
C           24.01434235468577       13.82052929108886        9.35603900235226
O           25.17627553582725       13.51605450809267        9.40474421909875
C           23.12519736465419       11.52142813298325        9.25549499086742
C           22.08065504896217       10.63118395715946        9.18614765488415
C           18.46824250126051       10.27457420847353        9.86123782568264
O           18.35115029228325       11.25243676391135       10.87010277961140
C           19.39002852479390       11.22318797299206       11.83393528697821
C           17.40180205368231        9.41019907435276        9.65686732175139
C           17.44455123180416        8.35211301147639        8.74320747889691
C           12.89746723234532        5.42082739213716        7.02641086045617
O           11.76389095829603        5.25454653442883        7.43313711423823
H           -0.30817041619144       -0.58995930615222       -0.39821088163221
H            0.04272579174562        1.12326347127515       -0.60282510817196
H           -0.24778328540315        0.47420188283524        1.00292630435524
H            2.15091509759426       -0.26068333548011       -0.77317323815735
H            1.86175225448275       -0.90538318704166        0.81884801789548
H            2.02499573776922        1.41667816204248        1.78705850637494
H            2.32075408912918        2.05934193263384        0.19653532592269
H            4.40280065572812        0.65166436495570        0.01009264264379
H            4.10082973225123       -0.00802313555835        1.59234521681950
H            4.26562653107266        2.30637729317354        2.58587928998694
H            4.58767606514950        2.96113031470233        1.00513471162223
H            6.66669506511071        1.55601016800051        0.83401168991378
H            6.32975737694645        0.85555040560110        2.39124062182997
H            6.48291556636898        3.14588250251437        3.44772296383018
H            6.86174904471111        3.83333035851030        1.89343642609607
H            8.93001497537901        2.41508757594014        1.75258629660661
H            8.52854060352126        1.66109546238005        3.26907832687107
H            8.66670418497112        3.91303850526435        4.41329342025267
H            9.13037176586561        4.64405691431513        2.90232285341776
H           11.17471439120408        3.18872196746216        2.80778084063549
H           10.68417796593207        2.38693137719333        4.27274978600767
H           10.81602474174949        4.59131864403947        5.51025928388495
H           11.37605341840589        5.36640296311340        4.05602631321852
H           13.40364489384017        3.90914983472158        4.02886425290825
H           12.80563031390959        3.02261992736239        5.41793776434598
H           11.91451019905776        6.42570047073231        9.36460596440006
H           11.99629263094110        7.18594582561423       11.68576577245635
H           13.30632846969414        7.70518706776870       13.65108705863740
H           16.90692696035131        6.39796184789142       15.41438494401510
H           16.92243712583105        6.47568485454224       17.87206204952174
H           16.10931294610399        7.41017152242356       19.98789247588978
H           13.97455833153624        9.53631377367310       17.79636560924909
H           13.96017606211075        9.46621938195669       15.33467428738676
H           17.66069600171377        8.96630442005251       15.32194253173204
H           17.52106094531493        9.96121660985384       13.85038219416679
H           19.11168447252280        9.37255186693470       14.39280604257330
H           17.45575021123980        7.48418331514811       11.05105223579864
H           17.42887230233747        6.02947350126921        5.62469173669411
H           19.44258218387867        7.30521629444448        6.16676414018279
H           20.51682877118668        9.05488349573401        7.45333892735682
H           19.51762059674338       12.81458169251771        9.11015642515876
H           21.38797120248010       14.40638771804143        9.23335113833893
H           23.79041140611214       14.87815129307931        9.37826821357926
H           24.14191597726037       11.17028746296118        9.29771952908209
H           22.27198975659737        9.57214511482497        9.17962085998110
H           19.03668926521375       11.70478350206922       12.74619432058717
H           20.26371526932989       11.76119620279657       11.46919826713117
H           19.66042759248246       10.18883167271656       12.05012872070236
H           16.51520030691544        9.57192901220135       10.23954688924112
