104
 energy: -19.854741508218 gnorm: 0.000535423506 xtb: 6.5.0 (97a52f5)
C            0.44624593232032        0.08571868437889        0.12631855999753
C            1.92525067726235       -0.26885779104106        0.12947978150794
C            2.65147763031883        0.22772705319360        1.38093042809467
C            4.13899696663548       -0.12608926640695        1.39227610677784
C            4.86167345149350        0.36576871781202        2.64702879039939
C            6.34620636549381        0.00003160464721        2.66467600969276
C            7.06700174872992        0.47527796919107        3.92701756320391
C            8.54377325542365        0.08049576222602        3.95387010047231
C            9.26226622006755        0.51771308850475        5.23078627725702
C           10.72482045033623        0.07511101484992        5.26867707623455
C           11.43827711386006        0.45458267229599        6.56539163890646
C           12.87135906726094       -0.05077464784643        6.62185806057620
N           13.52833915558474        0.24030982126668        7.89026567226367
C           14.85167341254466        0.68963739233693        7.99438835798296
O           15.59270805492785        1.00824694890140        7.08358918542906
C           15.16428184989483        0.68272920410584        9.43016928033816
C           14.06135952002281        0.23452533387096       10.11664424287001
C           14.10029989752116        0.03440574203494       11.51837685671784
C           12.97410280566260       -0.48415909401909       12.20617540063113
C           13.05055221006033       -0.83156321418420       13.50980367137890
C           14.29258005812797       -0.78062939477411       14.19841902096536
C           14.41946238781804       -1.33343596125107       15.48274240915883
C           15.63808497090702       -1.46270137311774       16.11105885490988
C           15.72835016206506       -2.15239728546317       17.41142054497911
C           16.72514271282980       -3.10299545173917       17.64883075511060
C           16.80155892389083       -3.75922588650249       18.85357677404375
C           15.87855959208566       -3.48689285528120       19.85207274207458
Cl          15.97371455851465       -4.31085007718265       21.36568447193239
C           14.87866168133522       -2.55131313083051       19.63175882198554
C           14.80267933289233       -1.89430283900939       18.42700753129120
C           16.81050223679469       -1.00998934739772       15.42916968278720
O           18.09932295196198       -1.08278000803042       16.00372866535554
C           18.23098676451909       -0.33508879730642       17.20002283394475
C           16.68091764755738       -0.46532382843533       14.16138037959930
C           15.44169692609436       -0.27317716539632       13.53952175603335
C           15.30709299318686        0.30490276666009       12.21208697988281
C           16.35824642425300        1.03935109549618       11.52742120699222
C           16.33553223069592        1.09709969625136       10.11077890478307
C           17.44672626030793        1.60551594664405        9.39214112907412
C           18.50673759032307        2.14359452231063       10.03441496568578
C           18.49167090011585        2.30069178415063       11.44675880032641
C           19.49402818459654        3.04142553303135       12.09219575769505
C           19.42521882262825        3.36695967731096       13.42885613254566
C           20.43829549033829        4.27464386189253       14.00616886083601
C           20.05393851708176        5.45981010628272       14.64018573851561
C           20.99427787530332        6.31571744400167       15.16090237750696
C           22.34363443456493        6.01235767129671       15.05523363428338
Cl          23.52464115888195        7.08333671542813       15.71660877512910
C           22.74234076292184        4.84611473844884       14.41877398274539
C           21.80259297116887        3.98959133679773       13.89741576847152
C           18.30000940235888        2.91620825453327       14.18848894072370
O           18.13903193634340        3.16815500775437       15.56534332691968
C           19.29052994459408        2.91747830479782       16.35274252248975
C           17.31079589452330        2.18902606562152       13.54390967814577
C           17.39492598256012        1.80786645352069       12.19881217247075
C           12.99857684887053       -0.07316074719434        9.14950957055310
O           11.89338098264062       -0.51840066297686        9.39491763229962
H           -0.05938876950050       -0.27385242135162       -0.77211927029756
H            0.29972186604985        1.16581312275208        0.17565653988102
H           -0.06510387591378       -0.34830011613180        0.98697184764622
H            2.41437703398708        0.14553967743573       -0.76154695195500
H            2.05256153892855       -1.35580384689616        0.04408734681515
H            2.16868129997930       -0.18619383095849        2.27406809379478
H            2.53125406234562        1.31392184692242        1.46919184751304
H            4.62364294437461        0.29017498016830        0.50127888926064
H            4.25884226647926       -1.21212907187350        1.30130440389568
H            4.37174369681326       -0.04561577222545        3.53745197839696
H            4.74882212139462        1.45273669729587        2.73536785675748
H            6.83962909362078        0.41762516600966        1.77919213301939
H            6.45653481872371       -1.08641803642324        2.56694380683044
H            6.56271150591118        0.06890647073131        4.81180100049827
H            6.97331654857970        1.56380056075151        4.01933070458915
H            9.05480968103479        0.50176446140940        3.08009466380423
H            8.63249658347230       -1.00639777611288        3.83937606802174
H            8.73508449083448        0.11464927638718        6.10357558149071
H            9.20099360681696        1.60714546095604        5.33735264002044
H           11.26245720206555        0.50003859379152        4.41289506174836
H           10.77925288559666       -1.01102761084416        5.12875430745900
H           10.88522184927318        0.05421392794946        7.42287794931455
H           11.42537732195311        1.54219265594508        6.69937210930637
H           13.46837512299089        0.39166325763702        5.81844422370438
H           12.90129132578940       -1.13375362323851        6.46958561547869
H           12.05770525440735       -0.61120573616231       11.65692226918709
H           12.18867457718646       -1.22699194120082       14.01888011482523
H           13.54219629570682       -1.72671407737758       15.96369720476805
H           17.44107346803870       -3.30773888658846       16.87169875294249
H           17.57331907480597       -4.48655605635743       19.03908810199102
H           14.16954097805868       -2.35045344289550       20.41658890018697
H           14.03302095075505       -1.16095479057764       18.26003053961979
H           17.77138599655318       -0.86485654636683       18.03323279034226
H           17.74708936352505        0.63404063446303       17.07522569084028
H           19.29042332218606       -0.18892089954896       17.41220291231097
H           17.58122211637143       -0.18419754631251       13.64955173735586
H           17.41784034722427        1.56539264897685        8.31736582418488
H           19.34182451553068        2.53036591821456        9.47636917854309
H           20.31060650153174        3.42563200207633       11.50775677822312
H           19.00524449321124        5.68905992002437       14.71984769535603
H           20.70009218523750        7.22571163177337       15.65540764321164
H           23.79358721857681        4.62606702636295       14.34252606022343
H           22.10862367029695        3.08224193266152       13.40623879686694
H           18.97884729509383        2.68173215302136       17.37073598995697
H           19.92813429552535        3.79970261928757       16.38323063061896
H           19.84638192341840        2.07401656391907       15.94079881127687
H           16.44780763404515        1.91291365601123       14.11885996730789
