104
 energy: -19.803577070352 gnorm: 0.000981400801 xtb: 6.5.0 (97a52f5)
C            0.39507909443144        0.47983559898685        0.09949753025754
C            1.88411101433835        0.20103819914923        0.23193331315432
C            2.63575470231688        1.32177709078772        0.95223910398644
C            4.13081922001746        1.04023752598699        1.10346913295312
C            4.88009817585067        2.15626385840995        1.83229143354011
C            6.36774493421750        1.85547563249070        2.01612442795882
C            7.11617813809986        2.95860472560698        2.76543870484763
C            8.58990500107289        2.62518916410185        2.99769410499950
C            9.33674005636898        3.70560529603691        3.78011287692172
C           10.78888970100188        3.32903646222044        4.07208780065820
C           11.52837851739261        4.37739176478526        4.90146981241831
C           12.94418797664314        3.95720406316369        5.26294556811283
N           13.62050660353508        4.91911236195389        6.12512553904371
C           14.95972243377328        5.29957865342444        5.96428461499951
O           15.70471725665844        4.99331809911089        5.05230622283931
C           15.27993858788107        6.13400005162549        7.13106472667006
C           14.16605992167404        6.21567536840717        7.93133910555143
C           14.20647689404212        6.88346207960339        9.17986015926991
C           13.06328782468248        6.91315847445949       10.01780782244901
C           13.13257288207237        7.39950630917460       11.27625557455723
C           14.37974442495343        7.80077012010325       11.82621693578356
C           14.48996812939459        8.10240023610094       13.19254688578704
C           15.70445559816978        8.32243483245112       13.80296136181900
C           15.76433750434943        8.50583939359072       15.26587385997057
C           16.68209865991520        7.79279348042110       16.03930445796948
C           16.72459136496031        7.93958689768381       17.40296080797769
C           15.84291173315023        8.80796310042301       18.06478270428746
F           15.88562475170291        8.96406436210184       19.46878923176207
C           14.91729055234531        9.51591842695917       17.28272602073794
C           14.87870645077650        9.36549062922428       15.91908553392948
C           16.89188497876172        8.25191406778609       13.00887024857179
O           18.17943454937545        8.48544204675723       13.53934824781425
C           18.32366340704916        9.75091332044825       14.16233185514854
C           16.77848216324369        7.95119950352178       11.66012399016352
C           15.54566423215774        7.78180702379987       11.01816796225385
C           15.42737853875042        7.46929771700704        9.60215896587042
C           16.50129158698851        7.61962185431780        8.63346839971233
C           16.46966943946925        6.83113094207198        7.45496454566132
C           17.59357402886266        6.77609002939054        6.59288957232668
C           18.68000185024070        7.54854713820235        6.81149596639008
C           18.68404023783607        8.50740799756587        7.85991690562095
C           19.72428883889743        9.44400442465204        7.96197707727629
C           19.68526877489701       10.49437734966100        8.85162705352020
C           20.74621248815066       11.52058616382225        8.81405894473006
C           20.42745597442967       12.87762689870633        8.73746847004110
C           21.41021631920259       13.83360368863362        8.67949095862742
C           22.76753885936632       13.47769462378440        8.68959273478259
F           23.78244934246546       14.45966115170208        8.63299207881577
C           23.08090534018230       12.11143957430331        8.75762155575413
C           22.09478878264023       11.15874936905415        8.81591461048606
C           18.54930865593044       10.62218348729320        9.71140336401741
O           18.42841805565089       11.64338446467415       10.67753670655586
C           19.53317197095457       11.74138015587685       11.56032074283807
C           17.52157972081234        9.69751175365859        9.60234376687849
C           17.57518167957446        8.59516358890819        8.74022994580071
C           13.08667930195987        5.43030111994006        7.31607868525072
O           11.96706834601022        5.25701984684940        7.75960272194340
H           -0.12874555058909       -0.32748937460964       -0.41631587022764
H            0.21424481601643        1.39932129798652       -0.45940517483760
H           -0.07168504429030        0.60099060061927        1.07833422990174
H            2.32890861730179        0.04527537553664       -0.75944084059716
H            2.04445905886281       -0.74408209290105        0.76675410841974
H            2.19125004801420        1.48494536052998        1.94114687503991
H            2.49120358562420        2.26668156613657        0.41529910765440
H            4.57824148133037        0.88008164150885        0.11544262472066
H            4.27316284232393        0.09339826236880        1.63767213039963
H            4.41758728570351        2.32945367610364        2.81119060053040
H            4.75821275558111        3.10013243088893        1.28798205034419
H            6.83529645564340        1.69064706061411        1.03829141584149
H            6.48458212603089        0.90580896866842        2.55148249253482
H            6.62658557165572        3.14367658525067        3.72896992020210
H            7.03168069514166        3.90363427035736        2.21593571738585
H            9.08719420905175        2.45500526392721        2.03549963481145
H            8.66703413810289        1.67017325544725        3.53092993573607
H            8.81342286234652        3.90156368217553        4.72347967426871
H            9.30140688313221        4.65408300154651        3.23138372137759
H           11.32394996105030        3.15623570400391        3.13092392701744
H           10.81568506930040        2.36628097897672        4.59620782658741
H           10.97087476510263        4.57913029557349        5.82324758311773
H           11.55221473354854        5.33395445676434        4.36727182376251
H           13.54836807602709        3.82107476855514        4.36078241708303
H           12.93671514124262        2.99225412843466        5.77843427734110
H           12.13906461736846        6.52136225964756        9.63088290224448
H           12.25802117883940        7.41215819778417       11.90348257867579
H           13.59998251787229        8.09474443304550       13.79557221326475
H           17.36589157635987        7.12434501884069       15.54508207322406
H           17.43930601515103        7.38788196387698       17.98813050919786
H           14.23190358222383       10.18352501569827       17.77492896560790
H           14.16626509949492        9.92147471861018       15.33457152483370
H           17.90845734203589        9.73268856085825       15.16884198851497
H           17.80970027300335       10.50931701650413       13.57073139389112
H           19.38386795163277        9.99720223708829       14.22512904435234
H           17.68695855621734        7.84754533655421       11.09852254442533
H           17.55326952829101        6.11142320909345        5.74792492482667
H           19.52492644306439        7.49994547544809        6.14655322425972
H           20.54997926172045        9.37530763750141        7.27681122836157
H           19.39015084930297       13.16476549561865        8.73078987706434
H           21.15310251796093       14.87696213944616        8.62572020594829
H           24.11722369480573       11.82228689465601        8.76415586548491
H           22.35278802265206       10.11552860295060        8.87419617994114
H           19.21738784854929       12.25892327469822       12.46669383463788
H           20.34207040177716       12.30774538725990       11.10146073562763
H           19.88717283594658       10.74244907040489       11.81818157769163
H           16.65498373278552        9.84733532906913       10.21721494725756
