120
 energy: -22.455081501223 gnorm: 0.000504256519 xtb: 6.5.0 (97a52f5)
C            0.15972462117646       -0.37160788273933        0.72073949245590
C            1.65064349394803       -0.07960086556145        0.65281162997926
C            2.35596124065224       -0.84791940837340       -0.46625217328595
C            3.85209862239352       -0.54445832610997       -0.54825203324614
C            4.56145078429272       -1.31290568195808       -1.66369405720228
C            6.04981922595563       -0.97773518466754       -1.76275387241774
C            6.76423627177221       -1.73164812350988       -2.88483598854315
C            8.23841460511508       -1.34756240044933       -3.01253224870931
C            8.95009095121735       -2.06079621565067       -4.16214182161973
C           10.40132677768596       -1.61187680372009       -4.33013105372180
C           11.09906662994564       -2.26433159655503       -5.52214654606762
C           12.51029692526291       -1.74253636576858       -5.74165520630668
N           13.14094473633286       -2.29848166119790       -6.93255388698314
C           14.46179085661747       -2.76626792039862       -6.96868376651635
O           15.22867067944980       -2.87353810106847       -6.02889023588325
C           14.73266934098580       -3.08466259626774       -8.37626104992163
C           13.60781786949676       -2.79936197390625       -9.11610309533983
C           13.60479346158460       -2.92605071701020      -10.52750006011874
C           12.45765015594952       -2.57630489952996      -11.28374231227805
C           12.49764740699174       -2.53366301052751      -12.63417186185896
C           13.72161789454836       -2.73917214888487      -13.32700910196459
C           13.81456726314652       -2.47626564512244      -14.70243021606202
C           15.01799528328737       -2.48004261022713      -15.37482350166092
C           15.06297658255619       -2.03859800927360      -16.78335590705575
C           15.93935416704068       -1.02988400161913      -17.18982075330380
C           15.96051908841147       -0.59274946136373      -18.48993027720967
C           15.10122464629870       -1.13976275334727      -19.44964366913304
N           15.12173614264263       -0.69189294103188      -20.78179104857006
C           16.00547324094307        0.39240456519765      -21.21119189349137
C           14.24913227658371       -1.27731263571827      -21.79991300390225
C           14.21913884440657       -2.14541540762138      -19.03756688119114
C           14.19764045436263       -2.58065404642027      -17.73647501434683
C           16.21018334266615       -2.78622769071927      -14.64568184591857
O           17.48845076053925       -2.83954648831148      -15.24039253270675
C           17.55662742311273       -3.63555252699876      -16.41174109864980
C           16.11192861146241       -3.04675740862710      -13.28780571295441
C           14.89003287808063       -3.09044089302466      -12.60335595372444
C           14.79245017839949       -3.35171271252512      -11.17636452581009
C           15.86431107591330       -3.91479415786173      -10.37117625603983
C           15.88523219037977       -3.64702674223801       -8.97835604773940
C           17.02080621102731       -3.98188543312530       -8.19830614886858
C           18.06370610452563       -4.65395576125526       -8.73486086899973
C           18.00521406037248       -5.12897778415009      -10.07306876564652
C           18.99534638436317       -5.99086193810586      -10.56960378839426
C           18.88459985318023       -6.61117145203501      -11.79541474105686
C           19.90100099133833       -7.59488456601999      -12.21425582304087
C           19.52898045091634       -8.84401411670977      -12.71568654074978
C           20.47287331741682       -9.76870270461158      -13.08469008803786
C           21.83970797542198       -9.49133377400279      -12.96842131255867
N           22.80822857038780      -10.43494466592084      -13.35207530041639
C           22.43266993523492      -11.72978681061404      -13.92053632489715
C           24.23915723380190      -10.16098232067855      -13.21717300370458
C           22.20971665220092       -8.24137508845363      -12.45897926350740
C           21.26447727695815       -7.31850035663266      -12.08826874259967
C           17.72204349758060       -6.35771164607509      -12.58914570541108
O           17.53045058771299       -6.93183216649209      -13.86606199684977
C           18.56068375243271       -6.62604461588944      -14.79078985854605
C           16.74934495406269       -5.50234159475115      -12.09683843302501
C           16.87998784374684       -4.82074240085298      -10.88014724877603
C           12.57467753454559       -2.27321885317545       -8.21493419740875
O           11.46245243784374       -1.88547204279865       -8.52342442511714
H           -0.33015964869864        0.18116917517214        1.52513724603255
H           -0.02688858528624       -1.43328829148079        0.89057527039829
H           -0.33767366464143       -0.10257639845919       -0.21261215215858
H            2.12674648704478       -0.31951341731367        1.61255493098613
H            1.81812860778520        0.99655275960900        0.51427050013138
H            1.88065779415446       -0.61675569015524       -1.42706978545756
H            2.20536643820758       -1.92491084791631       -0.32558678304180
H            4.32739174501977       -0.77022469279056        0.41379261933111
H            4.00010791972980        0.53237069603873       -0.69327379770483
H            4.07291233027101       -1.10271859853854       -2.62269163839611
H            4.43451575332129       -2.39098078678723       -1.50884830040550
H            6.54072997559424       -1.18937170433199       -0.80541488544269
H            6.17147078885357        0.10174311811773       -1.91246666945579
H            6.25282221748125       -1.54284929447485       -3.83641345400486
H            6.67480807697204       -2.81238649422757       -2.72200331051201
H            8.75860229706132       -1.55461139882711       -2.06966394636935
H            8.32068659150956       -0.26271933088718       -3.15055282577228
H            8.40300951448478       -1.88412933932453       -5.09597534461005
H            8.91103231215110       -3.14583472747874       -4.00891472314384
H           10.96349203240946       -1.81901522186715       -3.41177167200777
H           10.43287704455652       -0.52159272619941       -4.44360791815630
H           10.51163026244211       -2.09410554126998       -6.43175374021175
H           11.12247182688874       -3.35295875310082       -5.39711530185777
H           13.14414003432141       -1.96937867250786       -4.87881083609764
H           12.50373251598844       -0.65305863827971       -5.84245081760797
H           11.55563716504408       -2.32632668678933      -10.75338801591787
H           11.62077119272287       -2.26133443618526      -13.19589607700878
H           12.92547081366134       -2.18953824381254      -15.23468891788058
H           16.60511454920622       -0.60035104068434      -16.46099067321946
H           16.64973987877261        0.18060161353123      -18.77784333387432
H           15.80840119100483        1.28856493959957      -20.62572249439249
H           15.85163278142030        0.63408750947902      -22.26084164411317
H           17.04564389923755        0.10100083528236      -21.07802471789304
H           14.43327889213795       -2.34709975376077      -21.87901924037937
H           14.42760209554493       -0.83062475450714      -22.77583639247197
H           13.20594064556724       -1.11338288491998      -21.53630146424036
H           13.54549459273584       -2.58151291364135      -19.75316075016105
H           13.51469460830159       -3.35655496197566      -17.43613669047572
H           17.27889414756371       -3.04995406185539      -17.28692375696836
H           16.88869991958980       -4.49281871836803      -16.31744048140645
H           18.58001397112391       -3.98893022576231      -16.54156473912301
H           17.02520921006138       -3.21684727315556      -12.75061353042017
H           17.02582252878720       -3.69862305078136       -7.16048261178953
H           18.91840819837935       -4.90451010962236       -8.13048472987034
H           19.83828783237822       -6.22357672473919       -9.94426048716235
H           18.48078558438886       -9.06945347653446      -12.81231883999868
H           20.15868362400360      -10.72292070015098      -13.46783131799041
H           21.87418801673666      -12.31053752404373      -13.18879585973689
H           23.31129313743616      -12.30205362675327      -14.21096469287201
H           21.81661416439783      -11.58471590845670      -14.80597458919097
H           24.51538111623605       -9.30764549522843      -13.83374556926707
H           24.83516771349249      -11.01514382004001      -13.53177468847536
H           24.48151242234222       -9.94386437364660      -12.17855044322552
H           23.25288598022370       -8.00028365414430      -12.36027563617239
H           21.56729264677548       -6.35895615002667      -11.70591310001132
H           18.17777197694695       -6.75163893748458      -15.80404518009669
H           19.41008328242929       -7.29323738977461      -14.64941641760690
H           18.88280152546702       -5.59327298711767      -14.65187494018685
H           15.86468740176588       -5.36477665324387      -12.68864267423790
