104
 energy: -19.990494927808 gnorm: 0.000620108025 xtb: 6.5.0 (97a52f5)
C            0.37624467167336       -0.18514219204929       -0.11914942493125
C            1.85580021996848        0.16590630842081       -0.14035461176118
C            2.57258266652971       -0.35925622400116       -1.38557497271198
C            4.06026490448941       -0.00811553077394       -1.41259769900493
C            4.77705718573975       -0.52880792873348       -2.65878729782051
C            6.26186374198042       -0.16572193933296       -2.68782453282741
C            6.98042645188993       -0.67353638299318       -3.93826061476457
C            8.45783324976741       -0.28271154247830       -3.97525712075027
C            9.17562354677338       -0.76226203408349       -5.23681014381140
C           10.63940252784837       -0.32612976378520       -5.28889528754584
C           11.35135954843253       -0.76130194867490       -6.56839301354468
C           12.78580408512365       -0.26349776895347       -6.64793132700809
N           13.44362489620642       -0.62583641119625       -7.89735571407697
C           14.75178193804008       -1.12321689477276       -7.97248145298448
O           15.48271404551158       -1.41118102315565       -7.04355812621093
C           15.06186618424140       -1.21297207885547       -9.40723642588632
C           13.97246650260860       -0.77302555320543      -10.11998632601198
C           14.01357400004735       -0.66359719780987      -11.53195505073179
C           12.90204813784137       -0.15861470523548      -12.25427027485422
C           12.98550905834363        0.09394967510115      -13.57936475509032
C           14.22375264318151       -0.04203498105404      -14.26418328354904
C           14.36577998669485        0.41103981230382      -15.58547414399535
C           15.58788217410692        0.46456359175113      -16.21717303158067
C           15.68711519935437        1.05843480586394      -17.56702733422357
C           16.57521888008633        2.10189974097187      -17.82347639258108
C           16.65244417626446        2.66934241350626      -19.07601165566487
C           15.84247322397204        2.20987235249337      -20.09517647915668
C           14.95255905176410        1.18138812498768      -19.85778269644782
C           14.87195141966404        0.61177008185439      -18.60630566384455
C           16.75086478339914        0.04209091230427      -15.50182042781739
O           18.04641981136250        0.05337785852730      -16.05959316173519
C           18.15583732185474       -0.64153106171239      -17.29037243655884
C           16.60408685730325       -0.40805144268345      -14.19792109385127
C           15.36003366133736       -0.53002624900785      -13.56987131590545
C           15.20966412561877       -1.01482810077518      -12.20628407207938
C           16.23818575640252       -1.73617532705267      -11.47778058815252
C           16.21778876578287       -1.70670033520070      -10.06103687314181
C           17.31844716970464       -2.20088170032280       -9.31530777324436
C           18.36427009733393       -2.80015909873097       -9.92639360046543
C           18.34300236790197       -3.03904088575805      -11.32737177374049
C           19.33262252002649       -3.82724486860286      -11.93545765773696
C           19.25538852841633       -4.21998711450412      -13.25288805336225
C           20.27382619627470       -5.14851068091315      -13.79123318668898
C           19.90620599006104       -6.39462416744681      -14.29699143899882
C           20.85709932193054       -7.26670729729748      -14.77880437767623
C           22.19199450462918       -6.91503081261117      -14.75981037634200
C           22.57480458726381       -5.68850258081921      -14.25462367686710
C           21.62712644090701       -4.81349616932489      -13.77170921857992
C           18.12795317648105       -3.80757723698385      -14.02932928062762
O           17.94594884023743       -4.14457706164599      -15.38444133675965
C           19.09213495800116       -3.96959490088998      -16.19987515911238
C           17.15242846225498       -3.03028658939798      -13.42137930154570
C           17.25291692343908       -2.57046990433645      -12.10368299581388
C           12.92005287390483       -0.37424041224499       -9.17321307743905
O           11.82732045240028        0.08557036206793       -9.44581140763598
H           -0.12267198010529        0.19557112473839        0.77449481013669
H            0.22716104500332       -1.26587133502108       -0.14333001573363
H           -0.14001741750485        0.23075743996729       -0.98591433745932
H            2.35051327669566       -0.22995172590999        0.75614778812928
H            1.98620151799695        1.25427578264422       -0.07960889792807
H            2.08500850490757        0.03625803953115       -2.28457031128546
H            2.44994789414717       -1.44697353666111       -1.44976703801573
H            4.54866350989506       -0.40480011486179       -0.51461106329193
H            4.18200140015017        1.07961675445364       -1.34660857330934
H            4.28506646686531       -0.13624890555985       -3.55668383592737
H            4.66219881935629       -1.61735776384243       -2.72294736078894
H            6.75583330472162       -0.56179406087589       -1.79266282136424
H            6.37402313757736        0.92273373429950       -2.61717884792978
H            6.47650686626559       -0.28849918071477       -4.83290535601417
H            6.88454255145478       -1.76395273784486       -4.00332410931840
H            8.96696702768745       -0.67777081294784       -3.08807476941894
H            8.54924819248073        0.80709131509538       -3.89454070301817
H            8.64986211162110       -0.38623018509372       -6.12259495102654
H            9.11110392860208       -1.85449326732826       -5.30832930968300
H           11.17441453523173       -0.71879903421628       -4.41608184411782
H           10.69793247667921        0.76460795436518       -5.19244024119559
H           10.79824629288558       -0.39654393558361       -7.44156880673813
H           11.33525851034649       -1.85366312899610       -6.65587370802224
H           13.37876872263809       -0.66423797341878       -5.81997957731463
H           12.81870708916173        0.82598141254815       -6.55310564904079
H           11.99125835003594        0.03292835582861      -11.71464290501802
H           12.13422479446761        0.47901949549743      -14.11371903745777
H           13.49941633503616        0.78511078510337      -16.10073086109678
H           17.20614930095825        2.45501053062768      -17.02597145411320
H           17.34656415195581        3.47255680441829      -19.26153192384818
H           15.90454449732897        2.65395426472196      -21.07517202373106
H           14.31970505481524        0.82396818226404      -20.65353530894130
H           14.18110097114822       -0.19215047013790      -18.41919865640658
H           17.87173213279679        0.00607065779680      -18.11871190880296
H           17.51158648115610       -1.52152635421520      -17.27507293176583
H           19.19090233456319       -0.95552541339615      -17.42845762449457
H           17.49603836717726       -0.67277442081137      -13.66313936455688
H           17.29489766365380       -2.09474793948151       -8.24500350905096
H           19.19253042549670       -3.17105186131004       -9.34769215907334
H           20.15141503890992       -4.18404554577078      -11.33676250705688
H           18.86383636330671       -6.66306510495426      -14.31018683356560
H           20.55900471066615       -8.22502369410811      -15.17155397484479
H           22.93497564605113       -7.59834427539354      -15.13729009269899
H           23.61725580521593       -5.41556983508203      -14.23803167149245
H           21.92162259467932       -3.85583868463537      -13.37822869126695
H           18.77186403350751       -3.74043298482707      -17.21669398355203
H           19.68302853766286       -4.88449452419073      -16.22022730780747
H           19.69852122497933       -3.14578491378289      -15.82076765061444
H           16.28899858735920       -2.77552885374700      -14.00557957383820
