98
 energy: -18.570268161519 gnorm: 0.000476813146 xtb: 6.5.0 (97a52f5)
C            0.75169552795209        0.43389341984126        1.36537576760337
C            2.12893119118514        0.04120836466535        0.85359080620713
C            2.95207870947191       -0.72195442741253        1.89269628940071
C            4.33696856618265       -1.12325965172719        1.38406435870937
C            5.15978424645651       -1.88255880708347        2.42531459031359
C            6.54190936218427       -2.29050527540933        1.91452964451731
C            7.36646258882081       -3.04643647419201        2.95694168417935
C            8.74323092791465       -3.46474351419098        2.44071714752632
C            9.57010319465436       -4.21993086469821        3.48136381272720
C           10.93761585360350       -4.65382093896480        2.95484042728312
C           11.76771151095063       -5.40952247604071        3.99088211615759
C           13.11417896032589       -5.86810336042398        3.45531749084442
N           13.88899905341977       -6.59239155379287        4.45359397332408
C           15.14058850568215       -6.18075992965403        4.92931080280151
O           15.76187613174768       -5.18879934336047        4.59773450279208
C           15.54462157017775       -7.19757238466208        5.91106759634219
C           14.55263851902807       -8.14608624604099        5.99524072283034
C           14.69865702783858       -9.29188534887169        6.81556812361476
C           13.68692736025960      -10.28480899351380        6.86754460510692
C           13.87340556617024      -11.43904585440741        7.54614066468285
C           15.13077405921707      -11.73133809620165        8.13962903435733
C           15.38658234172041      -12.98504535248721        8.71256912319363
C           16.63576425917655      -13.35463744627978        9.15807705173462
C           16.80918995093360      -14.66695010797273        9.76252384445055
C           17.95874147701068      -15.20674868106479       10.26160594543308
C           17.80368482431730      -16.51468354955213       10.79603128865838
C           16.53899392681814      -16.98247001424300       10.70915109988828
S           15.50646606282201      -15.81702649506595        9.96161748540753
C           17.72625727057747      -12.44121900591796        8.98906355983223
O           19.00247756065603      -12.83857151918469        9.38415570571210
C           20.01576932034546      -11.86865283356381        9.22687243781074
C           17.46154106411290      -11.19455614924201        8.44228984634931
C           16.17492895217267      -10.77551729824494        8.08140739708350
C           15.89816720864476       -9.44948051349088        7.55329491868307
C           16.80267051907644       -8.31926634162682        7.67104666045060
C           16.69014228382099       -7.25460798375955        6.74285712814283
C           17.68236347465967       -6.24262022174619        6.68512136484293
C           18.70557330627383       -6.21479543842900        7.56790664582946
C           18.75763770980546       -7.14474661772895        8.64075640221343
C           19.71886681273284       -7.02427533821952        9.65419094914115
C           19.70644544033676       -7.81013397128220       10.78445184555039
C           20.74629774107417       -7.62274522923032       11.78508961947721
C           20.90966782731511       -8.31014593886573       12.95246717021966
C           22.02841836705398       -7.89177013837745       13.72300994085666
C           22.72641050931505       -6.88584040337835       13.15151526977499
S           22.01719374049421       -6.42946355043196       11.64406508914538
C           18.65027048178021       -8.76320453511934       10.94970602658255
O           18.60844184199543       -9.52412749172996       12.11693044446116
C           17.57964959981025      -10.48838762902318       12.17645522168098
C           17.71288643844077       -8.88887779086136        9.93547225839795
C           17.77206481592470       -8.15740195793349        8.74271369338411
C           13.47204114866993       -7.78009127324952        5.06777412886196
O           12.43228921771283       -8.38211832217238        4.87747520569220
H            0.17512803328639        0.97801027809214        0.61451452864149
H            0.82610187972163        1.07120083346357        2.24796438464970
H            0.17201674198862       -0.44529332735692        1.65113539853107
H            2.68304677097091        0.93464122916396        0.53766277910163
H            2.03434768436283       -0.56994685048285       -0.05337112604347
H            2.40388419371976       -1.61661878952601        2.21097888682228
H            3.05520663881125       -0.11345737207373        2.79894481486328
H            4.88461955671237       -0.22922550728837        1.06318254314294
H            4.23381391334065       -1.73462670745686        0.47976401031299
H            4.60991034423320       -2.77394914742694        2.74982512516829
H            5.26723211540101       -1.26925009935856        3.32781017585638
H            7.09078805153678       -1.39982814102560        1.58659070313620
H            6.43373936817635       -2.90658381855321        1.01404833724437
H            6.81402423691315       -3.93296048464992        3.29059291532684
H            7.48203018867402       -2.42748462676649        3.85467006644870
H            9.29513187644160       -2.57894045735423        2.10448746467295
H            8.62606942629922       -4.08504514230317        1.54416209412530
H            9.01317350798193       -5.09927780384534        3.82611351459074
H            9.69930116331256       -3.59572075736502        4.37347769851801
H           11.49428357783397       -3.77549596709545        2.60724286590850
H           10.80578174431590       -5.27918654481198        2.06392947126810
H           11.20995707964842       -6.28159218379311        4.35165525036340
H           11.92215849444020       -4.78264784516726        4.87661443063883
H           13.70667961224109       -5.01267470784450        3.11647415352183
H           12.98172937385220       -6.52015374142006        2.58686173513896
H           12.76480553891917      -10.09720126707648        6.34606783428681
H           13.09463781363033      -12.18096778198907        7.58322673022548
H           14.58010768666258      -13.69060517171385        8.79105543407717
H           18.89940531599570      -14.68148761049853       10.24988839256815
H           18.61851134864782      -17.07606167004613       11.22992261716945
H           16.20290852001310      -17.94251949031711       11.05291001778299
H           19.77785615191882      -10.97932132328944        9.81138751631869
H           20.13082367153027      -11.61526885308625        8.17217812646018
H           20.95555779497325      -12.28447032428859        9.59206304027761
H           18.27498130183355      -10.51704719086449        8.27380272322718
H           17.59360059034263       -5.48818876189569        5.92327737456279
H           19.45304558576022       -5.44253496617670        7.51113161656218
H           20.48148604589885       -6.27395070913521        9.55504402325960
H           20.24399182919660       -9.09990259642564       13.25918149059005
H           22.29105623937730       -8.33584737315090       14.67230773683738
H           23.60325354322348       -6.42281371417409       13.56328388218336
H           16.60544416971251       -9.99865473169158       12.15288461985735
H           17.67275660122078      -11.03861480878985       13.11355688074308
H           17.67662720694232      -11.19077421029501       11.34803223316597
H           16.89061354133255       -9.56309886728167       10.06993655746749
