112
 energy: -20.170256277293 gnorm: 0.000883779086 xtb: 6.5.0 (97a52f5)
C            0.82429978860449        0.40339866433554        0.31373954372576
C            2.31398759014671        0.21972887721161        0.06867950097382
C            2.89992737498089       -0.96567160241387        0.83763026846564
C            4.39753008020488       -1.15624555543213        0.59559535721764
C            4.98053984628649       -2.34582233976345        1.35892988546671
C            6.47549279531038       -2.54468785804409        1.10671821342619
C            7.05360447407630       -3.74676918438742        1.85404701718263
C            8.54504590042733       -3.95512748548831        1.59016540442716
C            9.11667069471221       -5.17266481624980        2.31648026012526
C           10.60653450840733       -5.38417636147953        2.04886983007315
C           11.17075636026061       -6.61604031207833        2.75391485167909
C           12.65152063217975       -6.83217659747567        2.48961606435496
N           13.15054546231787       -8.02781308851578        3.15018475154726
C           13.06335014142078       -9.24519524593453        2.45819747730513
O           12.62012093709686       -9.30011793075021        1.32186005577704
C           13.52122234222375      -10.45369747992268        3.15174634853118
C           13.47629815303997      -11.67727451955697        2.52104731055856
C           13.89808762062898      -12.82718005715471        3.15992406551573
C           14.38440988038171      -12.80345084432401        4.46362121891241
C           14.82335124587792      -14.01112325684610        5.14754167092206
C           14.78802353721726      -15.26134392517083        4.53769763738491
C           15.19830144473424      -16.40358904851712        5.19769788032698
C           15.66043582162733      -16.35128546288786        6.49401278079401
C           15.71850204787528      -15.10319422147092        7.15829414998733
C           16.18876091537095      -15.02619428035313        8.49057308542641
C           16.24386836132693      -13.80124267843836        9.11708186446248
C           15.84321988594729      -12.64855511086374        8.47003995082751
C           15.36620867222684      -12.67151986910088        7.16326712993277
C           14.93063302075493      -11.46349420408219        6.47830539699488
C           14.96670184886583      -10.21348764265884        7.08883290689031
C           14.54213715704368       -9.07323252155511        6.43490108204162
C           14.06403858415574       -9.12775127390326        5.14450505701667
C           14.01006538223314      -10.37476460897385        4.47752545362456
C           14.44447669194671      -11.55217335207475        5.14229009355194
C           13.61125111429859       -7.90658782689437        4.46994737041124
O           13.63167459477531       -6.82693718376727        5.03960907577389
C           15.30182442432719      -13.92342775231906        6.48639369966218
C           16.60817851375444      -16.23950283308992        9.19940471323466
O           17.01801435057974      -16.18714939648892       10.34818730960811
N           16.52020715239006      -17.45761161345435        8.50947591777938
C           16.94251427319227      -18.66281783827870        9.20660213136316
C           18.45576864139241      -18.78218047222820        9.28023689095028
C           18.92328483140052      -20.00027104714467       10.07493470099897
C           20.44476709704508      -20.09719982286041       10.18182216254319
C           20.91112541520230      -21.29527804036570       11.00899961337949
C           22.43262733207062      -21.38001741206791       11.13306323903156
C           22.90017429507371      -22.56639457297134       11.97669675297650
C           24.42172090817692      -22.64164766724194       12.11011870485748
C           24.89128766844250      -23.82041897265161       12.96317490187930
C           26.41234211365879      -23.88675111963703       13.10567551598589
C           26.88470804868277      -25.06439718062585       13.95998091036115
C           28.39760871427610      -25.11822296985461       14.10518637753320
C           16.08426721605510      -17.57646576873044        7.18096442055710
O           16.05514259313884      -18.65774661726577        6.61541480154962
H            0.41901671663886        1.25187802037051       -0.24143662987046
H            0.61665195134127        0.57345519397479        1.37144334613576
H            0.26321977731511       -0.48324545216089        0.01407697706872
H            2.85718411307448        1.13345143019028        0.34282613768985
H            2.50626285487132        0.08621470048083       -1.00388767260896
H            2.36370852982172       -1.88216061672012        0.56411159955542
H            2.71410282152909       -0.83642273875698        1.91048377654336
H            4.93506792170054       -0.24166169344393        0.87272725017280
H            4.58309637133926       -1.28194743586172       -0.47772302618347
H            4.43749595703234       -3.25858727553090        1.08629874195228
H            4.80183794597871       -2.21794040211687        2.43319442856820
H            7.02132354849755       -1.63691494164558        1.38988016038047
H            6.65388497875738       -2.66085816109101        0.03112546067606
H            6.50151283602778       -4.65230080431409        1.57518480847755
H            6.88253025350956       -3.62889697239293        2.93078713504139
H            9.10052427032316       -3.05631789861489        1.88327291986924
H            8.71644536921336       -4.05726380504808        0.51191928736767
H            8.55976804273137       -6.07025064238704        2.02237788324023
H            8.94660265620531       -5.07214682625363        3.39501350856330
H           11.16678786810691       -4.49377490739970        2.35773262680879
H           10.77752033018939       -5.46930229755419        0.96918642200779
H           10.61632349607179       -7.50915972834721        2.44319840972184
H           11.00463750991945       -6.53730943210433        3.83457412150230
H           13.23590129117386       -5.97438575473608        2.83736265732660
H           12.84267510866683       -6.92688692802444        1.41596561389385
H           13.10132020126242      -11.72195380926160        1.51265183062926
H           13.84247544724727      -13.75772642691638        2.62579483381813
H           14.43285763598144      -15.35494380876302        3.52821006366273
H           15.15937153720659      -17.35969526096438        4.70443372571506
H           16.60611970962630      -13.75822888511231       10.12995683525308
H           15.90373008304562      -11.71729692774817        9.00195625343438
H           15.33083632588848      -10.11909963622824        8.09521037380522
H           14.57811312432141       -8.11754985237572        6.92964280938565
H           16.50979799326402      -19.53074274106939        8.69892606866106
H           16.51012036682753      -18.64207176330035       10.21194336573656
H           18.86360505242078      -17.86886622732769        9.72893873259981
H           18.86942225613588      -18.81316136300011        8.26561721360326
H           18.52511770172953      -20.91438991021914        9.61866350325072
H           18.48731111592886      -19.96947359210265       11.08067633704491
H           20.84099540084758      -19.17325916426719       10.61986914548256
H           20.88295733322446      -20.14796019272023        9.17792536892210
H           20.52421694038393      -22.22161523729978       10.56759763956085
H           20.46364082028613      -21.24718068762291       12.00913174029277
H           22.81813460881104      -20.44843299459012       11.56470742291569
H           22.88118466754023      -21.43839180284524       10.13399885384627
H           22.52119007737893      -23.49947419118151       11.54290485275998
H           22.44634489887927      -22.51003367172534       12.97343206100591
H           24.79961677219996      -21.70536831517456       12.53816348374286
H           24.87626903266053      -22.70362124671386       11.11399713626592
H           24.52016823433324      -24.75777546597184       12.53194843812946
H           24.43112177909068      -23.76157983547053       13.95681886741864
H           26.78233888826906      -22.94894143312868       13.53670542507246
H           26.87287249070327      -23.94477492111611       12.11224309237257
H           26.51378477880767      -26.00041785985967       13.52302531709999
H           26.41280108831670      -25.00632191656549       14.94934527273382
H           28.88389164526958      -25.21084844432125       13.13280991012113
H           28.72099831252212      -25.96327884866420       14.71652862738434
H           28.78132266183436      -24.20958689469368       14.57166667845872
