76
 energy: -14.822802578234 gnorm: 0.000363463014 xtb: 6.5.0 (97a52f5)
C            0.77160693880472       -0.24553457948369        0.07711008768309
C            2.29148754750912       -0.19279197687453        0.11303348788442
C            2.86460938272390        0.94282708804156       -0.73650111317268
C            4.39242671360845        1.01052502660625       -0.70392776262685
C            4.95262545507081        2.15041837530313       -1.55505378479660
C            6.47924121483663        2.24254963114238       -1.52179372477702
C            7.01509635183227        3.39489431980834       -2.37200598459687
C            8.53830588560274        3.52842435156523       -2.33725997028279
C            9.03778123706648        4.70232609962258       -3.17981356746757
C           10.55491774256477        4.88654655411172       -3.14426405958470
C           11.01202907693620        6.08473608587341       -3.97476847751685
C           12.51235891396440        6.32092292159501       -3.94403067132567
N           12.87391078546076        7.49190207794739       -4.72668642143016
C           13.17818363786701        7.30930198107733       -6.08288652978855
O           13.21977542408871        6.19510061142967       -6.57779220292246
C           13.43378434537047        8.50665276392866       -6.88950454369160
C           13.74567741841025        8.39189037492900       -8.22542400781854
C           13.97267160259698        9.50955153474461       -9.00440784113250
C           13.89510250941758       10.79576176887703       -8.47952430065050
C           14.11966228979609       11.97935890753419       -9.29565085997303
C           14.42961185046929       11.89603122397771      -10.64951270079738
C           14.63463255184063       13.02435906184823      -11.41898082500139
C           14.53921530976939       14.28421999146279      -10.87277237095232
C           14.22722483840119       14.42459587121537       -9.49924964108065
C           14.12343259379856       15.71097560209268       -8.91772397752559
C           13.82053632394864       15.82568789424327       -7.57991996361530
C           13.61453805670310       14.70685356329256       -6.79703626192976
C           13.70194846574697       13.42058967408862       -7.32039490574922
C           13.47812060747654       12.23694764140801       -6.50426972837420
C           13.16016559676804       12.32028438938352       -5.15235627452365
C           12.93722190433421       11.19198139966208       -4.38784979252322
C           13.02297662551650        9.93219326127578       -4.93616608998720
C           13.34758277284991        9.79242566902249       -6.30583512787539
C           13.57707494080861       10.94680708238264       -7.09953189604372
C           12.76581981136114        8.74730384800326       -4.11238250200937
O           12.45818071101016        8.85189352604994       -2.93653564280873
C           14.01628442444872       13.26964973423166       -8.70132965351513
C           14.33523557872909       16.90909922294642       -9.73893208212881
O           14.24048144027661       18.02736807462975       -9.26201371064673
N           14.64418851497780       16.70909279671561      -11.07763182488778
C           14.75781426857600       15.47482890101610      -11.70314410062763
O           15.02613079769248       15.37843784399965      -12.88875081983123
H            0.37549816779771       -1.05960916644795        0.68718014090141
H            0.40620420604856       -0.38962541702573       -0.94072545909860
H            0.33650473304930        0.68404527752899        0.44704393843660
H            2.71021375531537       -1.14790430190859       -0.22892412390513
H            2.64034440249750       -0.08257176381463        1.14777194551021
H            2.44807101464563        1.89905060139923       -0.39883741591534
H            2.52406600960551        0.83363250590584       -1.77280408153084
H            4.81168042599580        0.05629016539338       -1.04339552453894
H            4.73409882093320        1.12202044698765        0.33166286087909
H            4.52205273814919        3.10151401099834       -1.22042462485956
H            4.61499014470812        2.03398092165851       -2.59154477785672
H            6.91520148364031        1.29650860368068       -1.86293576815428
H            6.81908731022590        2.35908049090336       -0.48620759763249
H            6.56011311002602        4.33503706121437       -2.03841924406860
H            6.68214702447377        3.27032026242099       -3.40916876675063
H            9.00139509048324        2.59769168053614       -2.68494941828419
H            8.87486301417973        3.64816212781791       -1.30090239025557
H            8.55239560009205        5.62497271360629       -2.84040490680136
H            8.70918218114706        4.57365365981470       -4.21780505503750
H           11.04910170733634        3.97593697064580       -3.50200546336165
H           10.88823071264791        5.00798685741102       -2.10713276947298
H           10.50433953815843        6.99119595675573       -3.62493156363181
H           10.69037330999151        5.96063332602355       -5.01529476057184
H           13.05318010055906        5.45630637015186       -4.34164600934658
H           12.86172194789064        6.47190326054114       -2.91775449606732
H           13.80574984792428        7.40668080709021       -8.65549000135072
H           14.21132940180824        9.36772673450752      -10.04195330647379
H           14.51406892796463       10.93501739334625      -11.12175673610567
H           14.87321918046804       12.93464615429506      -12.46500918919878
H           13.74531923770408       16.81114024669693       -7.15284167051800
H           13.37943187155919       14.84795750601047       -5.75854063541104
H           13.07903328440266       13.28095848965568       -4.67894554978539
H           12.68653083570752       11.28154240462688       -3.34462333498128
H           14.78870840381639       17.52584745083530      -11.64294210435808
