104
 energy: -22.291852994510 gnorm: 0.000494276106 xtb: 6.5.0 (97a52f5)
C            1.69647350189161       -0.08344032740664        0.02807788009642
C            0.92221860754762        0.96857600210317       -0.28943595506314
C           -0.53033160070496        0.98458978564329       -0.25113549375308
C           -1.21619895594344        2.15098576204110       -0.60021821490253
C           -2.58849842615970        2.21220719253164       -0.54514226283708
C           -3.33996004425923        1.11075740016060       -0.13546812684337
C           -4.81653021035351        1.18114514694671       -0.05306095956289
C           -5.55996563733837        1.84374652443884       -1.02955849271773
C           -6.93411832176048        1.90837125471276       -0.94779648056973
C           -7.59442887816540        1.31506407782759        0.10952264898402
C           -6.87595257330079        0.65585079592953        1.08667743837126
C           -5.50196007941940        0.58829397542292        1.00738769489207
C           -2.65834237244218       -0.05716764668718        0.20632589432134
C           -1.28612425941678       -0.12067831195862        0.14969554922697
C            3.14642019996117       -0.07820584174285        0.07098318804015
C            3.81995515117668       -1.18007109542248        0.60857649696499
C            5.18225802315136       -1.17140244433696        0.75780361411273
C            5.93644135102442       -0.05191170925013        0.39474249972889
O            7.31969228017921       -0.04261619518702        0.64884305773168
C            8.01871745944969        1.09892233943923        1.09753833878376
C            9.37916339062474        1.12124040346734        0.71020360458838
C           10.23571771463645        2.08775844066226        1.12047479505258
C            9.79998357572321        3.10950916732220        1.99125861612122
C           10.68533964430737        4.10054159889380        2.46195749044557
C           10.25707445381027        5.06485238758554        3.32607074502257
C            8.93120227410856        5.07505229718370        3.76276505363470
C            8.05265776293501        4.13034420782666        3.32024327466784
C            8.44684030047686        3.12871445281123        2.40671039689281
C            7.52325710995155        2.14147096100006        1.91616008108601
C            6.10323304899637        2.22570822065219        2.31609151890503
C            5.34157751075476        3.37901661551072        2.02184702257072
O            5.90132582017847        4.54909779420402        1.44462421311049
C            6.47385049990197        4.51992881044590        0.14958503728539
C            7.79426460138662        4.93038797165490       -0.04697491057900
C            8.37120683852721        4.87666101505508       -1.28814027387089
C            7.65342208255571        4.42063062623064       -2.39876573096021
C            8.30956895261842        4.35720922429360       -3.69135032402903
C            7.80294665878806        3.78823777317053       -4.79891659596052
C            8.47207169075839        3.72245861096208       -6.08762022268663
C            7.92047136945941        2.95214084551999       -7.11474215769920
C            8.52999834753927        2.86537315578309       -8.34395255138163
C            9.71869673534967        3.54696555133897       -8.60544269646147
C           10.37638974423175        3.45739262978812       -9.92874051812885
C            9.62548951559347        3.45256095769097      -11.10417022081617
C           10.24060736793945        3.37951978207974      -12.33516712906548
C           11.61672668851382        3.30852321565575      -12.41923568411685
C           12.37722538754551        3.31002316501318      -11.26718847768843
C           11.76536082876924        3.38359626437493      -10.03466526529706
C           10.26851974123197        4.32082234156655       -7.58339925397135
C            9.66079145101286        4.40783430460850       -6.35324826579397
C            6.31754435636322        4.04921310582000       -2.20702766849136
C            5.74018707950204        4.10669951400730       -0.96390320320625
C            3.97055850218595        3.41189926387352        2.35881628809367
C            3.36529861261088        2.37455061919967        2.98856544904151
C            4.10548229434914        1.23265569747411        3.37227887402087
C            3.50493301726972        0.16718917101132        4.07287886761376
C            4.24382276639923       -0.90588819119144        4.47726161252202
C            5.61278172537300       -0.95885628491877        4.20604905085766
C            6.21897401906298        0.05169393623687        3.51925476395178
C            5.48555890158465        1.16667988956668        3.06205433347134
C            5.27709640812405        1.01379919316519       -0.21300964941265
C            3.91369858121120        1.00784658577466       -0.36501457956838
H            1.22180717328796       -1.00111176370935        0.32225020893534
H            1.39757411911233        1.89315122527675       -0.56041400913727
H           -0.65268314430407        3.01470231014831       -0.90948802560843
H           -3.09683759160706        3.12541975461787       -0.80198937457948
H           -5.04776495012214        2.29684971290266       -1.86067185144881
H           -7.49484152757175        2.42208666668073       -1.71161206537747
H           -8.66916214140037        1.36718019738675        0.17276855401327
H           -7.39043247076908        0.19514674280226        1.91423103604299
H           -4.94234931796641        0.08582259736649        1.77737142078837
H           -3.22386881671915       -0.92125935827541        0.50980751033995
H           -0.79145306395444       -1.03506727682057        0.42352367054580
H            3.24971569321383       -2.03181422074502        0.93791534584958
H            5.69157807290933       -2.00890837601723        1.20042920001377
H            9.72554232475204        0.32690462666309        0.07269811039955
H           11.26468809086779        2.07398772097390        0.80475890282839
H           11.70972438880402        4.08322249911828        2.13158821166701
H           10.94303870987256        5.81714395013545        3.67979045543645
H            8.60244866767037        5.83575807226004        4.45190967016764
H            7.03184445549137        4.15101259202802        3.65795343005502
H            8.35916436850340        5.26141529759539        0.80555740340602
H            9.39746360760275        5.17609588227656       -1.41599639982181
H            9.29502099397102        4.78280095162357       -3.73918617004285
H            6.83862293774423        3.31798545010524       -4.74022966744065
H            7.00572276868417        2.41519950661248       -6.93008817418582
H            8.09737435537256        2.25361340815568       -9.11656800092675
H            8.55334915485075        3.52300141091739      -11.04153549557491
H            9.64645779785141        3.38103420353674      -13.23447181234062
H           12.09673287725255        3.25273452366280      -13.38270973484942
H           13.45162008387440        3.25278242716947      -11.33186770341258
H           12.35968957275053        3.37295606308574       -9.13738074323190
H           11.17539117159819        4.86826225031952       -7.77420390994505
H           10.10267327877148        5.02381480580530       -5.59073003219655
H            5.73016968642443        3.72374776232352       -3.04693958386873
H            4.70660159714043        3.84440054825146       -0.82582017451052
H            3.41100704850794        4.29344524749917        2.10048136555966
H            2.31653293397684        2.41943664475979        3.22631131432540
H            2.45148346730279        0.21408343179479        4.28916404124013
H            3.77338102367031       -1.71449822553256        5.01233755010231
H            6.18998367832851       -1.80680502277417        4.53674293506945
H            7.27119588646146       -0.00062396213369        3.30228607680919
H            5.86711877250814        1.85167180616940       -0.53058199148759
H            3.42713167884470        1.85445593825464       -0.81415551824273
