90
 energy: -17.013091967584 gnorm: 0.000824373515 xtb: 6.5.0 (97a52f5)
C            1.40461010256426        0.29387642375484        0.26309408128992
C            2.92248419091880        0.38594753746431        0.24291062128513
C            3.48128086680806        0.65609510635470       -1.15497548636492
C            5.00740935561448        0.74322797329495       -1.18440675755055
C            5.56303854437805        1.01359792855223       -2.58263889631638
C            7.08989861519118        1.08541375328707       -2.61795729574949
C            7.64052266433296        1.35505004051092       -4.01825008828631
C            9.16774058921498        1.40650636778075       -4.06499403913448
C            9.70802122592426        1.67541585877540       -5.46897087103883
C           11.23466829136514        1.70406732245550       -5.53424359102414
C           11.75694875400784        1.96902987541778       -6.94430887061924
C           13.27340612244977        1.97402179505777       -7.04074912291264
N           13.71545304943926        2.21533983552906       -8.40516485243517
C           13.97016944483584        3.53687879313302       -8.78204635695699
O           13.91179444361433        4.45528218824307       -7.97792286371698
C           14.30104415059987        3.77371834862695      -10.18576837094435
C           14.59720470788096        5.05174715497810      -10.60514839433521
C           14.90951981811993        5.31380943102565      -11.92964100538670
C           14.90544243275783        4.29768201150476      -12.84562960321230
C           14.58608778433769        2.98457039414058      -12.47772445726286
C           14.56613546495785        1.94253006787281      -13.45917048409641
N           14.71384931921782        2.22414773854515      -14.82897763784502
C           13.81974284890588        3.12547755088596      -15.59628123219884
C           12.58144689477635        3.51928471196202      -14.85259232743415
C           11.73642537815404        2.52551849142758      -14.39667185908393
C           10.62592681766361        2.85979521872801      -13.66318317631776
C           10.40168167244488        4.19062733499258      -13.41862518839021
C           11.28770542877545        5.11229220214310      -13.92437806654581
N           12.36243484398515        4.81580501762627      -14.63565944405667
C           15.92998610941184        1.83866011228835      -15.58006344346992
C           16.88302003327750        2.98443567161095      -15.69305022207615
C           17.62630337458750        3.33699898628082      -14.58234498021293
C           18.46425846877167        4.42233921762596      -14.64186548251312
C           18.52078750439735        5.11925867773831      -15.82223327390755
C           17.73922455008591        4.70027286073786      -16.87310164483596
N           16.92300993984869        3.66013811771699      -16.84017530058437
C           14.32527079590540        0.59920835381798      -13.02429884504914
C           14.28141587888285       -0.44394136851734      -13.96462365600847
C           14.03614158036061       -1.73214945469485      -13.58580231948846
C           13.81222265849645       -2.02863896791894      -12.24405927598810
C           13.82337917675053       -1.03250508755310      -11.31183156781776
C           14.06829886319153        0.31335977766137      -11.65625622473061
C           14.04093133285438        1.36980515653964      -10.69502046747874
C           14.30541226927286        2.69535491003534      -11.11316338455299
C           13.73531968731984        1.12145417343269       -9.28906502947182
O           13.48558073261454        0.00405377594832       -8.85274015589284
H            1.01871538302056        0.10198130045884        1.26640845078049
H            1.04977115459705       -0.50956476548554       -0.38450928119657
H            0.94875927061898        1.21921241192891       -0.09289294166959
H            3.36207720847895       -0.54015074557102        0.63574528161649
H            3.26220108257457        1.17426156309702        0.92729313448745
H            3.05193998248259        1.58466594863137       -1.54969604756496
H            3.14468121741453       -0.12842067707913       -1.84320864307222
H            5.43656631238223       -0.18620038655505       -0.79160857712444
H            5.34531811569743        1.52702184586674       -0.49607814492479
H            5.14136815006268        1.94794742433850       -2.97196066746389
H            5.21608767350481        0.23510986602415       -3.27259651253838
H            7.51117015792716        0.15013188059941       -2.23070596154686
H            7.43894251512882        1.86313569675473       -1.92837357389082
H            7.22865720332810        2.29677440818033       -4.40051995180496
H            7.27834173481577        0.58456345600108       -4.70954661957289
H            9.57969649998675        0.46358629717587       -3.68610045562371
H            9.53320892592907        2.17619139739564       -3.37479727339229
H            9.30622898813504        2.62519112847714       -5.84178339316604
H            9.32651257598342        0.91431776728178       -6.16018449112300
H           11.63755256751170        0.75362877047346       -5.16470160500688
H           11.62104101365031        2.46627863464923       -4.84730391680029
H           11.36926451545998        2.92638748819084       -7.31172377946631
H           11.35856086477777        1.21636898914145       -7.63484073291644
H           13.68612381203671        1.01631146501891       -6.70810800808666
H           13.70248852830382        2.74428114802415       -6.39205119947253
H           14.58658193593443        5.84831738696619       -9.88126746264772
H           15.15179844335830        6.31790540995474      -12.23678266661883
H           15.16046140161633        4.49997071937172      -13.86966865569109
H           13.54042976833215        2.62405709018240      -16.52622491146519
H           14.38090894879621        4.01842762038126      -15.87968246023107
H           11.97346969222356        1.49489904007544      -14.59653468476210
H            9.95993595834838        2.10182063102090      -13.28418108528499
H            9.54852827947923        4.50661804140797      -12.84078555183830
H           11.11460966940653        6.16166276928881      -13.73861394973347
H           15.64199682615389        1.49119528732344      -16.57468655961248
H           16.41375522995771        0.99963899911365      -15.07420137580089
H           17.52832606122604        2.76748431075884      -13.67399171054963
H           19.05249748522948        4.71940602716707      -13.78883872122685
H           19.16282381754372        5.97924233729383      -15.92193912949109
H           17.77464538096433        5.24892090255975      -17.80237439655391
H           14.42643988751230       -0.20984620672028      -15.00396288734491
H           14.00967132140384       -2.51841487083265      -14.32240906821634
H           13.62020928011764       -3.04652386390733      -11.94622246436101
H           13.63384837963499       -1.27496533082174      -10.28380643762961
