70
 energy: -12.624868156002 gnorm: 0.000626507419 xtb: 6.5.0 (97a52f5)
C            0.89694450610608        0.01723776434396       -0.04155581786377
C            2.38173763846662        0.33509692734487        0.04540344796544
C            2.99176365004372       -0.04905348842658        1.39438650329712
C            4.48478457047985        0.26660511438715        1.49039457346149
C            5.09265257394429       -0.12647674551947        2.83709514196846
C            6.58162440775130        0.20396226950430        2.94258294797282
C            7.19404694969094       -0.21797270794496        4.27866577945857
C            8.67602371077276        0.13848785503369        4.39733172796531
C            9.29526092265687       -0.30764096948952        5.72216440108526
C           10.76902913828120        0.07666289185675        5.85179733051247
C           11.39763746704527       -0.38943054497759        7.16467891723607
C           12.85828021042532        0.02018457016939        7.29626781207699
N           13.48016606304324       -0.40971231110929        8.54433585935869
C           14.85026300998443       -0.43912672701944        8.81083315353023
C           15.30339298486411       -1.47164241619317        9.63268386968090
C           16.63887033443812       -1.61340733473913        9.91330599989696
C           17.53564933238287       -0.71595328315094        9.39777604587282
C           17.10900920499052        0.36111661417562        8.61207558128030
N           15.76578715015280        0.47297129598531        8.33568512226417
B           15.25071112139101        1.68033021184329        7.53192295516928
F           14.22491335783488        2.31494870248210        8.21952612248512
F           14.87879565951298        1.27809955121088        6.25613847189637
N           16.37664013240016        2.68567114539103        7.36476876274450
C           17.66617117876032        2.33561949437861        7.63619919286502
C           18.48941244235349        3.47056169580375        7.20877968410104
C           19.83754518033742        3.78369919115549        7.18784957152926
C           20.23426063191658        5.02365098146348        6.67168042907169
C           19.33087207125934        5.94665501405034        6.17959506689081
C           17.94554313125794        5.66536595550566        6.18095159972631
C           16.87343892829072        6.46446281768849        5.71896484391982
C           15.56777263282250        6.00908297399198        5.79835203075814
C           15.23945428358300        4.75961316470795        6.32912469441030
C           16.26258561847925        3.94885295101700        6.79497653903349
C           17.58750180424401        4.42401161292457        6.70709968882805
N           18.09012050835857        1.22340272375997        8.20391020591600
H            0.47313859362942        0.29776661448470       -1.00808053232939
H            0.33454394606388        0.54627534618401        0.72958599781136
H            0.71326871238323       -1.04902034881695        0.10051915539248
H            2.55008616459505        1.40453381871197       -0.13690805316410
H            2.92560173637284       -0.17914024593093       -0.75773437751452
H            2.82930389648981       -1.11744807189022        1.58024201815022
H            2.45474246110847        0.46519060539293        2.20038490506669
H            4.64722969108378        1.33607626921633        1.31113681236794
H            5.02176894528202       -0.24320261980540        0.68160898528867
H            4.94074275374768       -1.19862631255991        3.00971306534443
H            4.54723221754818        0.37287211633955        3.64680167973705
H            6.73135734849984        1.27965664907807        2.79180814447864
H            7.12481514985544       -0.27764889698629        2.12080534886525
H            7.06253390239816       -1.29756810465204        4.41866519268411
H            6.63744927402452        0.24617669706352        5.10158173158191
H            8.80405195382217        1.22084387769882        4.27757638356132
H            9.23019361842206       -0.30845081206572        3.56347464294812
H            9.18661393495206       -1.39338293330729        5.83180204222820
H            8.72840701378366        0.12166100370411        6.55700718239076
H           10.87475156505962        1.16420400197062        5.75923557091884
H           11.33313220807985       -0.33700373920878        5.00733829744741
H           11.31077953029985       -1.47893715591771        7.24908936804969
H           10.82799130938139        0.01153659977008        8.01106244313146
H           12.94665135257566        1.10762560307911        7.22894091509518
H           13.44409800630122       -0.38380871302597        6.46379144262469
H           12.90455553884702       -1.11936567004076        8.99201732988457
H           14.59177613569936       -2.17345848951328       10.03116672475750
H           16.98016495108548       -2.42462021353686       10.53556987460378
H           18.58617309440625       -0.81117584578348        9.60977051302496
H           20.55691839964049        3.07763574754692        7.56227759856520
H           21.28435619612508        5.26478655450623        6.65854630314462
H           19.67036446969315        6.88972027315208        5.78887773498776
H           17.08899910567214        7.43166920881714        5.30052259287442
H           14.77340130060525        6.64122153361459        5.43728347205533
H           14.22182301409386        4.41790869110567        6.38690123755833
