127
 energy: -22.779397670263 gnorm: 0.000255266979 xtb: 6.5.0 (97a52f5)
C            1.85829905651577        0.83465314348090       -1.80769168838777
C            3.30587298616249        0.41470919742929       -2.01088217987877
C            3.68916762882926       -0.81064373368845       -1.17955005064403
C            5.14500315527142       -1.23686011399216       -1.37194375443026
C            5.52216518739159       -2.46114674403936       -0.53763032699650
C            6.97726363907418       -2.89240969692088       -0.72371015811559
C            7.35070909561870       -4.10327717341593        0.13142437461499
C            8.80484542665836       -4.54218293093056       -0.04318539504072
C            9.17021295359895       -5.73831107967013        0.83563475197172
C           10.62658373999551       -6.17805881672492        0.68710836027607
C           10.98301026238080       -7.34831839407781        1.60154624882546
C           12.44214664668224       -7.76746393823655        1.50337797909928
O           12.76493485663146       -8.82326941661828        2.42138341891570
C           14.14783422301655       -9.10836211236804        2.49337219313141
C           14.60495092691118      -10.25656557268731        1.83027838065140
C           15.93402644484063      -10.58481767595682        1.76109024650530
C           16.89600510545296       -9.73236730837116        2.35542617532903
C           18.26822402167576      -10.05410676729797        2.28327989323191
C           19.19162646318836       -9.21669906673895        2.88247944489339
C           18.79236706709884       -8.06625578848325        3.51814563078563
C           17.45080469398847       -7.68493192515940        3.59344001969257
C           17.03947935811771       -6.46088661549567        4.23811104837700
C           17.97210798668637       -5.46504720960260        4.66191873630807
N           19.31430096788055       -5.43915797266121        4.23255352664916
C           19.71850408081384       -4.94169970481969        2.88509785050075
C           21.11587468955343       -5.46047872683702        2.48908513103473
C           21.56265203204940       -4.88771095560395        1.13124201947532
C           20.53184378126463       -5.20495049042880        0.03053689061329
C           19.13094202265208       -4.69614941304701        0.42152951320445
C           18.69533518571220       -5.27505749099489        1.77956773830711
C           17.51608389670561       -4.40422021220468        5.46480829036372
C           16.19710306386630       -4.24384721038842        5.79257017771185
C           15.23653320024641       -5.16597390627935        5.30457954943811
C           13.87346056569410       -4.99964981386527        5.62200539673851
C           12.95344777477012       -5.92338157689934        5.15944687199248
C           13.34779710585998       -6.98113814295943        4.37667049818498
C           14.67937870184947       -7.17241113702707        4.00379465990014
C           15.08679841903508       -8.27357562751742        3.16491451610225
C           16.47263841605753       -8.55805230835396        3.03543367157679
C           15.65640768042062       -6.26565867989693        4.50736495409729
C           13.43232049931250       -3.86893685212790        6.44267403598858
O           12.24957960390244       -3.72331864518989        6.71148497703916
N           14.41186732849674       -2.97142233343476        6.89966333449406
C           13.99659510330754       -1.81827146183588        7.71208358884827
C           13.06507705208735       -0.87780187213435        6.92458829978242
C           12.64182323694718        0.33444518693448        7.77296691514601
C           11.98640918494152       -0.11620924372878        9.09267412650731
C           12.92228539889317       -1.04873041925353        9.88577577421051
C           13.34489667274907       -2.26017382514774        9.03578085250244
C           15.77960556022633       -3.10479373516641        6.61490513997651
O           16.60167083122532       -2.30294500125115        7.03077027668909
C           18.71231134060357      -11.26558771141780        1.59099340528842
O           19.90088924770104      -11.54106189741012        1.52489120337446
N           17.72836420588024      -12.08563742290323        1.01393764543066
C           18.14234335892505      -13.31301000982398        0.31837827706070
C           19.01644144212441      -13.00201914786455       -0.91055075718945
C           19.42968357116131      -14.29005584609727       -1.64455173197210
C           20.14505762804978      -15.26541131447811       -0.68979524095359
C           19.26942726412751      -15.58249182494654        0.53805382972278
C           18.85479729709207      -14.29317827351659        1.26895457796303
C           16.35504071120587      -11.80127728398708        1.06081356955714
O           15.53167531045080      -12.53721414396144        0.53889675436839
H            1.59658653474229        1.70865677667490       -2.40770591238154
H            1.66270939109498        1.08282730164802       -0.76320559641774
H            1.17269679033644        0.03097626348482       -2.08118125192623
H            3.97840550287605        1.24596719000568       -1.76223536993216
H            3.49311705242459        0.20550382220284       -3.07214206219420
H            3.02528745599902       -1.64672545487025       -1.42967882937567
H            3.50307386647996       -0.60726677157349       -0.11824748879502
H            5.80938337693516       -0.40151287895688       -1.12092451345970
H            5.33218010925604       -1.44188200753221       -2.43263652097462
H            4.85660448379464       -3.29598205480169       -0.78760699129061
H            5.33353160014046       -2.25444229196738        0.52261353499904
H            7.64296879065226       -2.05430162710861       -0.48566891445900
H            7.16439656683336       -3.11477623925879       -1.78093500492831
H            6.68327665960824       -4.94049460214819       -0.10510314856615
H            7.16072270319498       -3.87774116309293        1.18759152785900
H            9.47246443421187       -3.70216763139591        0.18233256916306
H            8.99478023738432       -4.78426050796023       -1.09552022158990
H            8.50649308779737       -6.58037017992100        0.60623109447271
H            8.96793462461123       -5.49468209991737        1.88547209022997
H           11.28959182484673       -5.33088905353476        0.89983016088007
H           10.82990832499952       -6.44634832092713       -0.35639442857780
H           10.34313323897682       -8.20936639876168        1.37865039700713
H           10.75344546978510       -7.08598196897743        2.64007674710583
H           13.10488500604426       -6.91950647946464        1.70842338094039
H           12.68273950235259       -8.11743474486657        0.49340037175631
H           13.88458572734750      -10.89192029569331        1.34988755587332
H           20.23419399812699       -9.47973270384085        2.83261898673447
H           19.53245392141804       -7.43753259706368        3.97218211781510
H           19.97539535278295       -5.03877903246571        4.89585476946142
H           19.77091039105358       -3.84263740171330        2.95006921869819
H           21.08098063001958       -6.55317369103775        2.43238362070350
H           21.84259013187907       -5.23051424379754        3.27792650535711
H           22.55568747552799       -5.26941917620602        0.85661742109216
H           21.68014426555490       -3.80065486430436        1.21672101338500
H           20.49234480551900       -6.28952528793665       -0.12726970273029
H           20.84634978446927       -4.77908187326696       -0.93209401955499
H           18.39591535683217       -4.93856394768635       -0.35834122961554
H           19.14517711815794       -3.60114904809623        0.48111698311905
H           18.60615038785080       -6.36210723661340        1.69672826746525
H           17.69872573901628       -4.91674208003431        2.06520128859987
H           18.22143301068435       -3.66789489985211        5.80275915967614
H           11.91781132002528       -5.79561470736657        5.42375738512844
H           12.61460193209042       -7.69598379926123        4.05498119174128
H           14.91375874739269       -1.26016512930218        7.95607730986768
H           12.18023447635459       -1.44589552402538        6.61950637013272
H           13.55059785253820       -0.56540939122935        5.99175072972131
H           11.96541716140635        0.98837400295412        7.20554596904534
H           13.52357413590443        0.94727601507757        7.99580570991115
H           11.05183545397981       -0.64521652785349        8.87035024900971
H           11.69545530336574        0.75205493143653        9.69964914044510
H           12.44538248071358       -1.37675774586135       10.81960951588563
H           13.81556622987627       -0.49150314696392       10.19280672595418
H           12.46892979046568       -2.87335754251512        8.80044247241831
H           14.02668776987003       -2.91961059628639        9.58691976346005
H           17.21980932443770      -13.79776403768611       -0.03689121417070
H           19.90752696237879      -12.46332426775464       -0.57199059519365
H           18.48959078380980      -12.30993830670851       -1.57909997118059
H           20.06401633211160      -14.05711656293116       -2.51081323241721
H           18.53673395750076      -14.77493744279582       -2.05727338121907
H           21.08860259479446      -14.81755965014196       -0.35546624160013
H           20.42754854984469      -16.18792289639905       -1.21530860191253
H           19.79118753405315      -16.26567423208157        1.22226228079815
H           18.37077881759725      -16.12147068272282        0.21453338180305
H           19.74036704298055      -13.79527038170308        1.67715661247390
H           18.21396635512315      -14.50913668753872        2.13278739507026
