138
 energy: -24.378936643966 gnorm: 0.000298694225 xtb: 6.5.0 (97a52f5)
C            1.74018466668392       -3.96188382355113        1.52705315304508
C            2.67590026999993       -3.60903347653495        2.67304474556590
C            3.46741150849010       -2.32565591115985        2.41684884477092
C            4.41598577499324       -1.96363536180382        3.56042766368648
C            5.21126264220706       -0.68658631983460        3.28947076511270
C            6.17601317843141       -0.32177830311558        4.41852079587643
C            6.98110948620717        0.94242622719316        4.11847340049805
C            7.97882195026661        1.30795949576196        5.21827443529193
C            8.79714732290392        2.55166079737410        4.87237569296814
C            9.83304778054820        2.92431454293674        5.93355184366388
C           10.67834318861959        4.12546972374089        5.51498696719380
C           11.75699820103744        4.50745336188383        6.52004658012161
O           12.58805587902618        5.54918069945927        6.00090143729256
C           13.82259480720144        5.72030580178866        6.61888457845243
C           14.03053538506535        5.30078697507129        7.94193430025896
C           15.23363576892518        5.44735170183600        8.57926674236155
C           16.32763341994541        6.01952451692196        7.88641552529856
C           17.56761738854156        6.18772969884920        8.53813645692528
C           18.62131110404217        6.75781247163536        7.85011107862290
C           18.49087066299955        7.11097690505451        6.52855639574738
C           17.29838843869662        6.93097217523864        5.82734828683693
C           17.18331362302306        7.25137346017093        4.42532790157028
C           18.32445161050653        7.51881822704457        3.61666311432899
O           19.61058816093302        7.29849302967297        4.11830377594496
C           20.54261492758290        6.65273521606674        3.21904131877246
C           21.81484655236941        6.24786667986616        4.00414156429524
C           21.47299727077391        5.27435881112858        5.16469087132516
C           20.17449290432414        4.45008347298312        4.89929289223351
C           19.99154336307931        3.20916990056579        5.84194861632972
C           20.96232624123719        2.08069001205233        5.45764845450780
C           20.24649516774921        3.61512450084860        7.30482033646720
C           18.54227717131090        2.69629221788990        5.73457434003300
C           20.08996171123125        4.11515560461170        3.39111015333334
C           19.92177643274392        5.39581173994706        2.53543873956347
C           18.13772379455238        7.94348422687572        2.29193516968430
C           16.89646100176549        8.03037288318113        1.72052766925949
C           15.75251881199124        7.66068412391507        2.47069034298644
C           14.47573279982218        7.69609033248206        1.87330163225609
C           13.37504598328719        7.31146848274396        2.61338870520834
C           13.51175020739689        6.87934977965813        3.91124692520190
C           14.74965018694745        6.81706567776834        4.55256803185964
C           14.89795016609319        6.32326265570005        5.90449067771687
C           16.16870744965027        6.42579253235998        6.53430258502196
C           15.89706274356979        7.24857697659860        3.82340327374564
C           14.31344630055019        8.12977025182554        0.48312385183845
O           13.20532240873341        8.16138588767497       -0.02987876877767
N           15.46939595079608        8.50007031682435       -0.22366536347814
C           15.33773843021819        8.93946192288734       -1.62054784533450
C           14.78498265797732        7.81657903469616       -2.51834983332556
C           14.65871433806639        8.27777083207478       -3.98117214808651
C           13.79287983342312        9.54794752964255       -4.08724763532848
C           14.35300600807515       10.67499370528038       -3.19828380399983
C           14.47871877122432       10.21271471488820       -1.73592523096624
C           16.75989560374025        8.46575681834742        0.32652672678236
O           17.74193489586284        8.78294227640566       -0.32629905583975
C           17.74357768414841        5.76035209931593        9.92832316121081
O           18.81981054340519        5.90313081743401       10.48822717134093
N           16.64008842949254        5.18229156268379       10.57700733803120
C           16.79254326738879        4.72105109143898       11.96455345999532
C           17.84501837972536        3.60268456659357       12.07965986018785
C           17.97840195624494        3.10706360946333       13.53043529914037
C           18.30437558351761        4.27240539899878       14.48475391344664
C           17.25129897989804        5.39215351071373       14.37325318869639
C           17.11852669799079        5.88336989722656       12.92064770858227
C           15.38654075661671        5.00787739958825        9.97052181217516
O           14.44933722921165        4.50686336062703       10.57205236412415
H            1.18709003284495       -4.88384212440786        1.71790086761361
H            2.29171422548621       -4.09674703384813        0.59517532337372
H            1.00936047079271       -3.16966522988180        1.35651210617032
H            3.37530549811036       -4.43492579939311        2.85707779584320
H            2.10757510181971       -3.50444246233813        3.60640673367489
H            2.77388623805477       -1.49546059475202        2.23750053567849
H            4.03732609918457       -2.42625780545567        1.48543817159864
H            5.10665485221778       -2.79541962450698        3.74296374410053
H            3.84765490861854       -1.85425333778892        4.49162081278133
H            4.52044887594799        0.14644374145160        3.11263827654179
H            5.77001517254260       -0.79617090854930        2.35227424392615
H            6.85995754777639       -1.15871429004402        4.60287850557758
H            5.62031773446141       -0.19419998368951        5.35501233021662
H            6.29698624501270        1.78243601792389        3.94885301588184
H            7.51579315430862        0.81619131718607        3.16937332984876
H            8.65277367898838        0.46239298223769        5.39985558453943
H            7.44934663006984        1.46193746224065        6.16580695128040
H            8.12339600984934        3.40002361902666        4.70308666386761
H            9.30268132654843        2.39613443709242        3.91174251363959
H           10.48571671543145        2.06523854103014        6.12928197458494
H            9.33462369396462        3.13096188311778        6.88791610368181
H           10.03374852051489        4.99190050188204        5.32943769278261
H           11.15652296011751        3.91782574115856        4.55097535409515
H           12.39074355721231        3.64233897102346        6.74513776011195
H           11.31145544099252        4.85008912923998        7.46022596577430
H           13.21861768510104        4.87123336025295        8.49662050757608
H           19.55631844495071        6.90125441781377        8.36391401781929
H           19.33285391796782        7.53831949428524        6.01784755422807
H           20.80702529966850        7.40708221540148        2.46148169332761
H           22.31190457701055        7.14542488418725        4.38911177649601
H           22.52689384385218        5.77616437904672        3.31749545423330
H           21.36040787285144        5.84193803790131        6.09557229049014
H           22.30848688633940        4.58931325938731        5.34055152926583
H           19.33038670047612        5.12092687351865        5.11514763288014
H           21.99833889532710        2.40935370404114        5.51937179717876
H           20.77855915180790        1.72981608736342        4.44336651173691
H           20.84524962313536        1.22810956788731        6.12581818511095
H           21.27119183336657        3.95194930136500        7.45277240085001
H           20.07764821354119        2.77351516879888        7.97555453443543
H           19.57730405555899        4.41799717447144        7.60711102173584
H           18.31830810859624        2.32940895552633        4.73476152889833
H           17.83127875668835        3.48746841288193        5.97104616562701
H           18.37017292146423        1.87624394229178        6.43080816029127
H           19.27910081524911        3.40605831721994        3.19309969558885
H           21.01067347180185        3.59871198071403        3.09905936996819
H           18.85676345093596        5.57183026623668        2.35978153863101
H           20.36496723723834        5.25282175040805        1.54293573123850
H           18.99192206289567        8.20478450785584        1.69699769879271
H           12.40462441582517        7.34515092978224        2.14856281402419
H           12.63230028826106        6.58251727968680        4.44757653650790
H           16.35298251423064        9.18325133021424       -1.96976026369455
H           13.80294631057995        7.52093759809508       -2.13498522884393
H           15.41595741943804        6.92328798609863       -2.43195000852385
H           14.24990688581514        7.47370746477120       -4.60843419309382
H           15.65768489389015        8.48451602949211       -4.38374397217096
H           12.76864645077290        9.31451017082441       -3.77233813904036
H           13.71125768671630        9.87869802403540       -5.13172413772011
H           13.72706942121564       11.57516157935424       -3.26902288305279
H           15.34032818516084       10.97440098820581       -3.57015962027278
H           13.48615191963550        9.99648342657956       -1.32751988104918
H           14.89345984293126       11.00341760370756       -1.09854551129734
H           15.81972917184893        4.30093458684279       12.26338611557993
H           18.80544162871514        3.99676468595760       11.73162203025619
H           17.59711316682601        2.78239108428088       11.39473204058731
H           18.73992771140844        2.31845660191159       13.60323646605118
H           17.03791231484587        2.63580179346257       13.84056819037538
H           19.29219903460885        4.67852361703403       14.23584898306309
H           18.38575768676910        3.91605296805266       15.52081705771379
H           17.49684480474921        6.22641479427211       15.04468178953638
H           16.28134553187807        5.01410811916494       14.71831029941768
H           18.05752645343462        6.34352512896639       12.59600847234482
H           16.35813593140567        6.66883595237859       12.82915093726898
