146
 energy: -25.448698416342 gnorm: 0.000406553034 xtb: 6.5.0 (97a52f5)
C            2.73512583836845        2.28134400953338        1.01864539115611
C            4.15036797738492        2.33746048476854        0.46466256109894
C            4.39243117081962        1.31475972618533       -0.64655575405484
C            5.81183721086013        1.36721821315994       -1.21256198729669
C            6.05195349364673        0.33681565023069       -2.31595135080698
C            7.47375016307242        0.37673619242861       -2.87664568343294
C            7.71347772420090       -0.67154667854304       -3.96292487068253
C            9.14110415857870       -0.65783054130775       -4.50983572804768
C            9.38400172045370       -1.74541407053082       -5.55576255446342
C           10.82042687452886       -1.77355823404772       -6.07786663664534
C           11.06807497261848       -2.92357227522152       -7.05158662883321
C           12.51285917293630       -3.01671859355222       -7.52130752919886
O           12.74965975032768       -4.19511610788121       -8.30869011870341
C           14.11604223032752       -4.43758560175682       -8.57732775490076
C           14.57393261829826       -4.13211173444903       -9.86870071312198
C           15.89289513467848       -4.22692213211121      -10.21998989302310
C           16.84574674001523       -4.63378586417794       -9.25308691510551
C           18.21013898194904       -4.70823890198380       -9.60203186138490
C           19.12716051189934       -5.10247441380992       -8.64853516379305
C           18.72787542021639       -5.41246129420801       -7.37048484976357
C           17.39379080396342       -5.35580390024216       -6.96449437114124
C           16.98224611613406       -5.67179256732595       -5.61277324990015
C           17.91534922883298       -5.97435591974159       -4.57712017879457
O           19.27760056258076       -5.95781178404445       -4.84521150284842
C           20.13812244511876       -6.41886594542104       -3.80466496972488
C           21.56994508461540       -6.56724781521966       -4.29889310739721
C           22.13621583731086       -5.25079882599465       -4.82117439349660
C           23.49089036589501       -5.41519826628977       -5.50981875682150
C           24.03192121707204       -4.10822406101519       -6.08867586203189
C           25.34162074488448       -4.29315125950905       -6.85515615611187
C           25.86320429603370       -2.99506580517028       -7.47095306475261
C           27.14707072111689       -3.19008178061077       -8.27762167117922
C           27.64653238861782       -1.89963761349822       -8.92749056708924
C           28.91725153782021       -2.09900198911325       -9.75378680830038
C           29.40993987606267       -0.81117647470684      -10.41573500550165
C           30.66834828133285       -1.01836765737912      -11.24405791115050
C           17.43351113370319       -6.28536115244124       -3.29564034239313
C           16.09798456619998       -6.34870977002537       -3.00420440630998
C           15.14799723348164       -6.07596858132033       -4.01651641944192
C           13.76925462653852       -6.17830692245337       -3.73334202517397
C           12.85451549605233       -5.94429249918370       -4.74131964648684
C           13.27123064311404       -5.56850688308972       -5.99576951719191
C           14.61888100846747       -5.39129353989833       -6.31020881766539
C           15.04003006499900       -4.92746234370440       -7.60961736599873
C           16.42218779625941       -4.97146360446775       -7.93716156415380
C           15.59097519657618       -5.70585604302409       -5.31553819364261
C           13.30655570201322       -6.54197837802636       -2.39103153837210
O           12.11201316793498       -6.62555209177113       -2.14935607531772
N           14.28060774721149       -6.78330372251241       -1.40817088027946
C           13.84866272501684       -7.13890529189096       -0.04824501352903
C           13.04738569448335       -5.99978749594460        0.60941577832058
C           12.61749051328314       -6.37094321630933        2.03984732287865
C           11.81658439472358       -7.68733866044728        2.05129049357337
C           12.62106857120525       -8.82970689473377        1.40142558374796
C           13.05155397850126       -8.45672712261432       -0.02828116424397
C           15.66055467690619       -6.70305408583730       -1.64943587885718
O           16.47745733645035       -6.92071059704833       -0.76805312205978
C           18.65618503321859       -4.37722881011805      -10.95842641179767
O           19.83911214881061       -4.44725939095814      -11.25530905014270
N           17.68026188577986       -3.98245571167816      -11.88824923423827
C           18.09577886341994       -3.64343523091412      -13.25760955151597
C           19.04451130582739       -2.43042983845820      -13.28034367064374
C           19.46210395863479       -2.07126152132801      -14.71740535844503
C           20.09583787460648       -3.28277153522616      -15.42817118231532
C           19.14334219229767       -4.49398932820522      -15.41364369457554
C           18.72653029142538       -4.85111654520327      -13.97586201962119
C           16.31434615259839       -3.88454017566284      -11.58269801836285
O           15.49659884416269       -3.52651390289199      -12.41609066523855
H            2.57494175943397        3.01645123153827        1.81013969373499
H            2.51318737801398        1.29715731759525        1.43459198189877
H            1.99800165546309        2.47391850992419        0.23733668065646
H            4.87808005295233        2.17567178162168        1.27060193602516
H            4.36733844387124        3.34407500156199        0.08403779735019
H            3.66821770278131        1.47143326944536       -1.45488142295643
H            4.18411680455916        0.30638183426696       -0.26934911898168
H            6.53623226707943        1.21514956101861       -0.40356895522173
H            6.01934901548342        2.37323378236411       -1.59617034423203
H            5.33138141024965        0.49149455509968       -3.12793170087826
H            5.83713122677853       -0.66776799321957       -1.93220544344162
H            8.19371272192424        0.23285753734704       -2.06215755499888
H            7.68740723393012        1.37628164088309       -3.27355551562037
H            7.00231889650781       -0.52205017500807       -4.78409550554275
H            7.48396105846500       -1.66758687585289       -3.56563833949739
H            9.85118213874842       -0.77953516694903       -3.68317211255057
H            9.36613374518583        0.32625291857992       -4.93771469761157
H            8.68842406567097       -1.61620760992616       -6.39345626120581
H            9.13392091539218       -2.72327456674603       -5.12691712047688
H           11.51466048990270       -1.85501824471907       -5.23280624042865
H           11.06365412473246       -0.81809864221985       -6.55759104568333
H           10.40613439197252       -2.83473324994909       -7.92022862306387
H           10.78519115626118       -3.86934121066949       -6.57665590739311
H           13.19790876451311       -3.03272265644264       -6.66653403657366
H           12.78789267675335       -2.14569200732669       -8.12632105069956
H           13.86222614836167       -3.79099759499533      -10.59711523547230
H           20.16568181643659       -5.15989448229144       -8.92620123081343
H           19.47381466370428       -5.71836953494230       -6.66546767493798
H           19.75454904733719       -7.37938524843970       -3.44086068664776
H           20.08949130481302       -5.69612191325233       -2.98265958246925
H           21.58961892811791       -7.31074927659940       -5.10389011968644
H           22.21687720134543       -6.96774189995229       -3.50886180928139
H           22.21636877743064       -4.52676213440846       -4.00154354234713
H           21.42220667843277       -4.80444662289487       -5.52330557053000
H           23.40349222661609       -6.15876433270868       -6.31110405809020
H           24.21669662835810       -5.83893117900933       -4.80569301137378
H           24.17161559194819       -3.37579594870948       -5.28472760004676
H           23.28067305010552       -3.66367353506431       -6.75233679894958
H           25.20030735181039       -5.04096030359728       -7.64479076557987
H           26.10248189511801       -4.72022074503810       -6.19104156054566
H           26.03073654424512       -2.25234150592830       -6.68184468398852
H           25.08977923837012       -2.55848338322868       -8.11416567691412
H           26.98215454890417       -3.94972530390168       -9.05112547640011
H           27.92963871040713       -3.60597902871738       -7.63185048816179
H           27.82347299820873       -1.14209931041811       -8.15476773964151
H           26.85773916242121       -1.47989157517051       -9.56310993015835
H           28.74042451682822       -2.86196249376971      -10.52133178658455
H           29.70901587474423       -2.51285674365896       -9.11799610718232
H           29.58667421465429       -0.05138863374670       -9.64325351854299
H           28.60939234324231       -0.39744274540897      -11.04282906792463
H           31.48649777943250       -1.39812707568325      -10.62986998964942
H           31.00986143356857       -0.09172100800094      -11.71010335253714
H           30.50040003963160       -1.74445047733344      -12.04125872858062
H           18.12092987156290       -6.48472118574785       -2.49656542496968
H           11.80598298309158       -6.05211572013896       -4.52288703238543
H           12.53821932892729       -5.41677379978764       -6.76470104019243
H           14.76562625464423       -7.29069228554951        0.54191537905790
H           12.16349675404044       -5.80080487822348       -0.00541231498891
H           13.63251955503289       -5.07191629397030        0.59330060805227
H           12.03752103392966       -5.55683057527776        2.49592179513722
H           13.50917883761673       -6.48334544221646        2.66846911533296
H           10.88007364115897       -7.54514323508022        1.49856409123795
H           11.51661604764920       -7.95339505337228        3.07417890576570
H           12.04312627031604       -9.76411864694985        1.40276197968449
H           13.51251950183575       -9.03555821253879        2.00625108572266
H           12.16753172434759       -8.33403741675786       -0.66245117764436
H           13.63899785266170       -9.25790750743946       -0.49362362569921
H           17.18051875208629       -3.36649920158781      -13.80332449981234
H           19.93043366382135       -2.67470632310375      -12.68517397662998
H           18.57482205032593       -1.57829359806950      -12.77356084131760
H           20.14986068233573       -1.21440158227478      -14.71955158882143
H           18.58033655442067       -1.74057364401437      -15.27953163747073
H           21.03047762276151       -3.55147786516623      -14.92118709674000
H           20.38312875580228       -3.02493646261933      -16.45680268325676
H           19.60443605881981       -5.35856314126110      -15.91073905594351
H           18.24870154370391       -4.25971514910217      -16.00322061113999
H           19.60245086491509       -5.17352374627829      -13.40351028625846
H           18.03364278682999       -5.70153081659225      -13.95769409871306
