64
 energy: -11.014198968062 gnorm: 0.000481343183 xtb: 6.5.0 (97a52f5)
C            0.90070885158554       -0.09852245217127        0.29310105368838
C            2.38207605930711       -0.13381284156195       -0.04943634391799
C            2.96215465810214        1.25738301614397       -0.30928616982223
C            4.45054932089873        1.23299478690086       -0.65821406294147
C            5.02977730897464        2.62818260722810       -0.89354406364380
C            6.51636252337322        2.60923529644576       -1.24978531466619
C            7.09850244655782        4.00832147931560       -1.45230796225762
C            8.58308818727216        3.99316203838932       -1.81676428842904
C            9.16986053171870        5.39418907182645       -1.98896015946669
C           10.65196377007742        5.38080476555529       -2.36220189869037
C           11.24314004379915        6.78146053405831       -2.50847036150492
C           12.71948523278234        6.76796655225020       -2.87819979888512
O           13.25790571188944        8.08293833967030       -2.99394013078549
C           14.65943917964918        8.18253195981260       -2.94536718382480
C           15.16176308647613        9.41134230143827       -2.56070230477843
C           16.54130488691249        9.66058439527466       -2.44350781931880
C           17.04362596543088       10.90879144032426       -2.03144197128586
C           18.40105141922805       11.14159447875860       -1.91489628089496
N           18.88835835700878       12.39296525781116       -1.48911072204756
C           17.98402203064268       13.47559084829922       -1.09875003537652
C           20.32311078747149       12.66433098089592       -1.39786997182882
C           19.29155258764856       10.08467365811272       -2.22833195671042
C           18.83475827112561        8.86778686603353       -2.62853991545089
C           17.44893219709468        8.61794773787495       -2.74541808155462
C           16.93756925336447        7.37336995092031       -3.15949109922667
C           15.59032235665672        7.13658543427748       -3.26849643021738
C           15.20596948708172        5.87244670178313       -3.73206183381764
N           14.91318571684650        4.81721360818495       -4.12030532420880
H            0.49888838596373       -1.09657126114920        0.48082028110204
H            0.31914983182373        0.34312061724722       -0.51802622324614
H            0.71624636328918        0.50259404274248        1.18521872759072
H            2.55165172135669       -0.76769848004325       -0.92976377713967
H            2.94549615260475       -0.61595433779049        0.76032698037391
H            2.80132807954531        1.89211946319126        0.57049716755527
H            2.40299213593196        1.74433596892909       -1.11736819422729
H            4.61096662494328        0.61183350100755       -1.54762587843171
H            5.00849525800337        0.73350952074140        0.14295765504740
H            4.87397474345028        3.24548762963100       -0.00052406917183
H            4.46704726024059        3.13121833914745       -1.68920951014941
H            6.67097406754373        2.01026082527369       -2.15533305746720
H            7.07658919750780        2.08834153908431       -0.46396064645557
H            6.94938244997006        4.60304108630323       -0.54298428508729
H            6.53329467382180        4.53328333650387       -2.23185135858719
H            8.73069526806197        3.41572700736346       -2.73728510931701
H            9.14541827400156        3.45142636407802       -1.04675928805836
H            9.02856300859283        5.96754798619903       -1.06476749536542
H            8.60277209180515        5.94016057810094       -2.75254608615782
H           10.79207447268483        4.82231299609623       -3.29546219322419
H           11.21662493411325        4.82075410078190       -1.60711685162270
H           11.11083215431444        7.34240736185362       -1.57631941095776
H           10.68622034083611        7.34737045916317       -3.26377824831137
H           12.86967276944961        6.25851392785088       -3.83573342928598
H           13.29765429622020        6.22659520230816       -2.12116030553379
H           14.46515758017203       10.19550503169869       -2.32988607865940
H           16.34645249656282       11.69302806029961       -1.80445179849999
H           17.31059033557670       13.13690122646109       -0.31357382307407
H           17.39621089455330       13.79832163314866       -1.95613580403868
H           18.53688572245655       14.33342169191230       -0.72124373879261
H           20.79953159973007       12.48693735080116       -2.36031763452448
H           20.77853589475838       12.01686270239852       -0.65074253483274
H           20.51102270248260       13.69782532350261       -1.11402324405468
H           20.35038266773263       10.25123809507508       -2.14296678434747
H           19.52665115012334        8.07666012574021       -2.86102040290263
H           17.62727417082316        6.58618217050391       -3.40761311829357
