69
 energy: -12.307668504871 gnorm: 0.000442637760 xtb: 6.5.0 (97a52f5)
C            0.93043687597729        0.30063095649552       -0.00535140677087
C            2.43467077186221        0.11618761678866       -0.13373787205726
C            2.95318897086162       -1.08760111497591        0.65462810006542
C            4.46488933129286       -1.28061065907878        0.53066424993300
C            4.98041346014292       -2.47751892201674        1.32978853252352
C            6.49135977381817       -2.67589105198698        1.20685449794964
C            7.00370436865450       -3.85960321421823        2.02712008779671
C            8.51276952765944       -4.07000794077209        1.90298746578992
C            9.02046230661947       -5.23381711661404        2.75381516460369
C           10.52682034752626       -5.45976628884033        2.62905528800938
C           11.02921652485908       -6.59540338310731        3.51801005625910
C           12.52739328699874       -6.82887690889484        3.40200401572477
O           12.97670040980618       -7.86070270531824        4.28767616521591
C           14.37996848354422       -7.97106873063226        4.40237205770637
C           14.97146310211680       -9.17307489034440        4.07013551390295
C           16.36803136080209       -9.34241411472243        4.07027368574064
C           16.97037707746337      -10.56184845256002        3.71615339338132
C           18.34449713765522      -10.71737541839684        3.70392651032901
N           18.93061747267351      -11.94654542966470        3.35309734059404
C           20.37491387618279      -12.16116594956094        3.44562964406997
C           18.12212509186097      -13.08619535934282        2.91903603620625
C           19.14812452711983       -9.60384817136217        4.05691520073834
C           18.59493579906684       -8.41216573801900        4.40444912155511
C           17.19061935728056       -8.24233691955710        4.42328449081165
C           16.58614551819591       -7.03083272314429        4.79332582714335
C           15.21447096445974       -6.87627310951877        4.82900594665107
C           14.64692883963248       -5.61346353686283        5.29607218598896
C           13.68760123857503       -5.46891297998316        6.24225973759483
C           13.18152303259544       -6.52990237872855        6.99953425130323
N           12.77287740240470       -7.38011819519878        7.67877765164923
C           13.22990036517511       -4.18441017788482        6.54426042891646
N           12.84866287071896       -3.11284955212358        6.78528703993108
H            0.57354083162714        1.16400693389468       -0.57066655614346
H            0.63869768015943        0.44622412921813        1.03602436102906
H            0.39316471965774       -0.57611663984129       -0.37061904916587
H            2.95613927698487        1.02151643660020        0.20340592460805
H            2.71270163308932        0.00474018040966       -1.18987884375037
H            2.43785673136467       -1.99592434353067        0.32030019625416
H            2.68201720698422       -0.97897778368009        1.71153958342356
H            4.98038529941814       -0.37011221287808        0.85860603649314
H            4.73627486541926       -1.39797679537562       -0.52517957200533
H            4.46239874328953       -3.38778776429591        1.00492729850109
H            4.71048508985120       -2.35750084237177        2.38581900516506
H            7.00945868296318       -1.76096322595904        1.51806023905245
H            6.76108669309385       -2.81265375265956        0.15289630118535
H            6.47899208190148       -4.77307434644929        1.72269591998393
H            6.73868250324288       -3.71679103183193        3.08154528730566
H            9.03762527807265       -3.15019576650313        2.18723570752009
H            8.77728685451475       -4.23721393154020        0.85213662714423
H            8.48705514008758       -6.15148599003343        2.47862077192018
H            8.76212507948373       -5.05844792937618        3.80497980854331
H           11.05970540029667       -4.53458468996155        2.87866632454063
H           10.78506117489752       -5.66578255967308        1.58360553631488
H           10.49874036542384       -7.52423752519224        3.27998785078663
H           10.78169619789332       -6.38553610114183        4.56466645257718
H           13.07401637879180       -5.90707607897525        3.61906375662639
H           12.80117686575117       -7.12283096818968        2.38235469347956
H           14.34003718587835       -9.98919501554695        3.77268989723779
H           16.33793174167094      -11.38973034747486        3.45711313000225
H           20.73009514306248      -11.89442010863736        4.43914105849867
H           20.89083815596799      -11.55137918869114        2.70646450937687
H           20.62846610913040      -13.20405378863139        3.26742771868669
H           17.47099359797751      -12.79196031134406        2.09816814343330
H           17.51361998809259      -13.44778431097669        3.74575445191997
H           18.75083175877132      -13.90340508538568        2.57175037739349
H           20.21826059324422       -9.70717664211093        4.04228157394181
H           19.22200576606492       -7.57900644390613        4.67104608486231
H           17.21071365289770       -6.20782863020818        5.09038252412634
H           15.04870605938060       -4.70999496761245        4.86429645990526
