65
 energy: -10.954392631501 gnorm: 0.000792323625 xtb: 6.5.0 (97a52f5)
C            0.89018487344246        0.25500500716578        0.01839025794236
C            2.40038918533050        0.12117976128845       -0.10208848710275
C            2.92795398402151       -1.18685548309978        0.48976302788079
C            4.44556508276362       -1.33105177310735        0.37149439256091
C            4.96996328936995       -2.63167264133606        0.98036081896522
C            6.48877491220657       -2.77398386569156        0.87772149489173
C            7.01022689554545       -4.06120424350545        1.51675527835904
C            8.53088023322006       -4.19842747191448        1.43908805535915
C            9.04936451196218       -5.46445191901136        2.12110698123644
C           10.57110930098036       -5.59654477939521        2.06685874563788
C           11.08725521965706       -6.83038452282293        2.80432823324867
C           12.60336754815243       -6.95244698357754        2.77497342659029
O           13.07118438399579       -8.06384456243355        3.54707330876025
C           14.47602286577861       -8.21623308555030        3.55494910123155
C           14.99372635898256       -9.39089731032326        3.03974814263993
C           16.37672008504283       -9.62876615287520        2.95981261269192
C           16.90013868363230      -10.82318811196377        2.43254693099852
C           18.26202477706911      -11.05086276670982        2.36046287902419
N           18.76895312261998      -12.25531653982123        1.83996178464201
C           20.19695982648490      -12.57096113119928        1.88951159240065
C           17.89248168076871      -13.26728204626015        1.24934339934900
C           19.13630264170464      -10.03750476134356        2.83048762160646
C           18.66065860433358       -8.87224050232793        3.34271197010070
C           17.26891706262563       -8.63051186084781        3.42472300107442
C           16.74149903421696       -7.44819610644956        3.96838665398095
C           15.38539891388708       -7.22675189264860        4.06174562988535
C           14.92582286943310       -6.01603988279604        4.72990838622275
O           13.82831657663932       -5.76517117647414        5.15496076518374
H            0.52614753527516        1.19352544378558       -0.40533294178166
H            0.57324454284726        0.22117568904696        1.06238421627176
H            0.37944530781551       -0.55894227014424       -0.49928067866481
H            2.89515953238019        0.96787554049677        0.39193105677831
H            2.70325500460228        0.19070345966551       -1.15529848623131
H            2.43817469030440       -2.03695448890366       -0.00054507658206
H            2.63304597555646       -1.25804222657074        1.54383177994414
H            4.93477969361179       -0.47600005156562        0.85357076945502
H            4.74130796420343       -1.27150325130424       -0.68293907296641
H            4.48585196421005       -3.48785505082855        0.49500204643562
H            4.66634983884573       -2.69203845689150        2.03263524159271
H            6.97125108541708       -1.90875878934653        1.34838068442748
H            6.79413700136867       -2.73315393348631       -0.17485016871274
H            6.53661076852621       -4.92824937686945        1.04050761468041
H            6.69197131998606       -4.10365195761494        2.56552139455367
H            9.00229422716141       -3.31834016141525        1.89290465126766
H            8.85112242191315       -4.18470969692920        0.39035701020344
H            8.58536751090223       -6.34711690702403        1.66459293079164
H            8.71817543308396       -5.47770158630661        3.16664435771090
H           11.03247791873890       -4.69704238392098        2.49210749611490
H           10.90444028923985       -5.62205923315718        1.02244111386984
H           10.63995325630703       -7.73757364415399        2.38253146936928
H           10.75355576037854       -6.80560878066439        3.84797621706370
H           13.06585912155059       -6.04328131977114        3.17030182014184
H           12.96807031242645       -7.07390130115621        1.74866979712606
H           14.30960491227523      -10.13316331264787        2.67318824788883
H           16.21567325084902      -11.57693774374568        2.09171037106916
H           20.57468517231296      -12.44061308651741        2.90226522272352
H           20.74805563674257      -11.91699462504941        1.21551357554931
H           20.38102458231446      -13.60245504393058        1.59415461901526
H           17.23628758751922      -12.81117897415623        0.51079034455189
H           17.28752591382997      -13.73600325617567        2.02335586197887
H           18.47050732758910      -14.04152961216975        0.74899386592230
H           20.19804485424158      -10.19815306408431        2.77342828602848
H           19.34070503982924       -8.11631619496651        3.69622310207062
H           17.42216886764407       -6.70652992393892        4.34683951048327
H           15.67084585433569       -5.24911362252923        4.89878574449442
