103
 energy: -17.242065226320 gnorm: 0.000780281241 xtb: 6.5.0 (97a52f5)
C            1.42034949253775        0.60873094398847       -0.91327120934981
C            2.84049609105704        0.23464413552980       -0.51799370202344
C            3.46657283284629       -0.79719520963624       -1.45800193047692
C            4.89611041886819       -1.17252021975781       -1.06651170123091
C            5.52499877750709       -2.20375355568371       -2.00396033750917
C            6.95420950718202       -2.57524662767934       -1.60770912645054
C            7.58182886677495       -3.62037594184764       -2.53036941051185
C            8.99751555839737       -4.01396242856657       -2.10786736083245
C            9.60615344351141       -5.10615214514728       -2.98764641633581
C           10.99305896148846       -5.54412190596414       -2.51737580366934
C           11.57030846646039       -6.69587364278764       -3.33849044020504
C           12.90310850565498       -7.19568230442512       -2.79585475914029
O           13.40725386322528       -8.33123646023081       -3.49964867113990
C           14.07836641498207       -8.06250813510158       -4.69917420509338
C           14.59513010711093       -9.16222437308881       -5.39758480868507
C           15.28915378004816       -9.00302275376250       -6.56847882578034
C           15.51356846592673       -7.73782016113610       -7.11569668422506
C           16.27408410269010       -7.63012283256954       -8.33535054677857
N           16.59812088886731       -6.54432166654335       -8.93565717704894
C           17.35488785610055       -6.52550220184847      -10.11186456530787
C           17.12498444385967       -7.47531815347858      -11.13457206390040
C           17.87472359347363       -7.49933040311481      -12.28079493910400
C           18.88946974822771       -6.55303616806465      -12.43297396134863
N           19.82127975846840       -6.31183785436399      -13.42117493173795
C           20.58170395959777       -5.23177838822475      -12.98778373220188
O           21.64233501748021       -4.67616764565883      -13.68743820345190
C           21.92787823642249       -5.37638958138650      -14.89040682384074
C           23.14944986410499       -4.81856887047081      -15.60941434710275
C           23.47517678134029       -5.56668790489513      -16.90100112608634
C           24.71341577243087       -5.02071259240743      -17.61159423958375
C           25.04182512156561       -5.76719765644679      -18.90476135875417
C           26.28966234531033       -5.22763501747412      -19.60416353521560
C           26.62356422926365       -5.97190393919810      -20.89732940733755
C           27.88143762530400       -5.43895416145881      -21.58421149996038
C           28.22392512925188       -6.18574308818271      -22.87368509546073
C           29.49000497240428       -5.65929485238459      -23.55057204875486
C           29.84060193002238       -6.41040636093822      -24.83617306432062
C           31.10354133093641       -5.88399490868940      -25.50044911530040
N           20.17513562525086       -4.78492642050805      -11.80394911855859
C           19.13279165259657       -5.58267262046009      -11.43189287931339
C           18.35171586451946       -5.57631624721570      -10.27207566551889
C           14.98402702672968       -6.60902201172155       -6.42841572896761
O           15.15988012782299       -5.33205888174474       -6.91708939942746
C           14.28092336114844       -6.79758523456182       -5.24332628278355
H            0.98580622609098        1.34504090365368       -0.23353967518597
H            0.76688871526666       -0.26547620974332       -0.91144565371319
H            1.38916917022174        1.03180442410649       -1.91891102569850
H            2.85669487949691       -0.15407884602440        0.50883034377935
H            3.47362502319292        1.13138193611840       -0.49152679738568
H            3.45462634097208       -0.41428105804540       -2.48562651667057
H            2.84264073436921       -1.69882730078094       -1.48294099075593
H            4.90719623085704       -1.55525696892210       -0.03877498563917
H            5.51945038367470       -0.27057412114846       -1.04103881260274
H            5.51435276373721       -1.82315278212545       -3.03244490163627
H            4.90301462750166       -3.10680146643862       -2.02754038945298
H            6.96296759772169       -2.94550027855188       -0.57534259595176
H            7.57918016197789       -1.67419146904730       -1.59210461868591
H            7.59293405029937       -3.24687287472875       -3.56142662039841
H            6.94582562275238       -4.51348621122929       -2.55730459842038
H            8.98529879074922       -4.35133874367878       -1.06437412007221
H            9.64587194674658       -3.12955377920304       -2.11316026558382
H            9.65679668054731       -4.76239537825366       -4.02785096891774
H            8.93625154718180       -5.97441251654839       -3.00641051893981
H           10.94174944889234       -5.84018453675925       -1.46258293164286
H           11.68074496044767       -4.69018752427155       -2.53993405529757
H           11.67854580962721       -6.39513695574939       -4.38606212062829
H           10.85989256660881       -7.53030668098415       -3.35686116800257
H           12.78422982353822       -7.50773595778470       -1.75138899066646
H           13.66442886448312       -6.40889747087145       -2.78184191189165
H           14.43784147101618      -10.14343540601787       -4.98591840624513
H           15.67938626010138       -9.86672783432933       -7.07948560218289
H           16.63551928257615       -8.54995336318650       -8.76166959830833
H           16.33128987584466       -8.18902424548373      -11.00168450464368
H           17.69939197015431       -8.22602426396436      -13.05376341139155
H           19.90940323511477       -6.84945427328172      -14.27944442902420
H           21.04346775725593       -5.31950256924612      -15.53543571018200
H           22.08404618154651       -6.43225354320483      -14.64073149474415
H           24.01067765339446       -4.84909839808495      -14.93237063372053
H           22.99046241735030       -3.75525568056126      -15.82135877376952
H           22.61329225507867       -5.52583513725586      -17.57782688732570
H           23.61634766806942       -6.63219937258717      -16.68316427652899
H           25.57458162676111       -5.06385620106584      -16.93383749830873
H           24.57400474649232       -3.95453145023132      -17.82734592774108
H           24.18518566985233       -5.71647610561320      -19.58758579401970
H           25.17274145368383       -6.83473004389050      -18.69043382124098
H           27.14511537754931       -5.27896904519827      -18.91964619721390
H           26.15950428279748       -4.15967280760898      -19.81735763022002
H           25.77317299942888       -5.91267221045219      -21.58728366575276
H           26.74499533188588       -7.04109020413279      -20.68563332737709
H           28.72972417838529       -5.49481857811356      -20.89124355221407
H           27.75927142343835       -4.37037045601658      -21.79886990564490
H           27.37977230891103       -6.12359158735720      -23.57100781118712
H           28.33880371407856       -7.25521621384862      -22.65980809634759
H           30.33218742361827       -5.71677457146021      -22.85035844768349
H           29.37388986211541       -4.59071952231135      -23.76851170535430
H           28.99410187337964       -6.35095983070100      -25.53301125017024
H           29.94939680106736       -7.47993509871614      -24.61266524186521
H           31.00088318739521       -4.82979124703618      -25.76388275963800
H           31.34384568096243       -6.42945387554216      -26.41570327021090
H           31.96382637706737       -5.96658298794606      -24.83381847797503
H           18.53886542463194       -4.85269469942154       -9.50230101001789
H           15.69071933294939       -5.45126596868293       -7.73076517872884
H           13.89631200993621       -5.92452489111347       -4.75431456347942
