91
 energy: -15.458948459751 gnorm: 0.000736261876 xtb: 6.5.0 (97a52f5)
C            0.94950219394951       -0.00597329711125        0.38057708876260
C            2.43035107611522       -0.35292083973012        0.38512587198358
C            2.95165625361048       -0.74288544346160       -0.99901096862705
C            4.44013621152078       -1.09243135541012       -1.00293672230522
C            4.96332938752740       -1.46021512495301       -2.39144557696433
C            6.45176647635898       -1.80927782589200       -2.39856577847179
C            6.97860881382661       -2.14397963196243       -3.79389349722669
C            8.46633661625054       -2.49500574609642       -3.80602159216898
C            8.99663034066165       -2.79026631556752       -5.20875671397925
C           10.48579132123653       -3.13331838759684       -5.22828226622380
C           11.02066500960939       -3.37935622066159       -6.63758493212129
C           12.51118351831217       -3.69115078434470       -6.66494167774349
O           13.00006849367256       -3.85575214154041       -7.98882293241266
C           14.38022549350499       -3.98061448767150       -8.03432265215378
N           15.07197123895294       -3.99355675265356       -9.16894115985267
C           16.38356192497256       -4.11567462580438       -8.81506444606087
C           17.53715252379380       -4.15704037151839       -9.60341249046947
C           18.77828020675905       -4.27592325058412       -8.99919951668692
N           19.92673077071140       -4.28398134673737       -9.79261262151030
C           20.97979829656348       -4.95400918288980       -9.49418224776578
C           22.18265623552591       -4.94275584204965      -10.26929114838621
C           22.29478943105123       -4.15028586838817      -11.40987520786083
C           23.44747259889954       -4.12790833599302      -12.15255873838398
C           24.55353302033598       -4.90681917506836      -11.78338862529374
O           25.76922981344391       -4.94063282934295      -12.47753471569694
C           25.85948321557333       -4.03582154396973      -13.57604502087277
C           27.23269612487758       -4.06793365810700      -14.23293234117622
C           27.36446556597000       -3.08137273750865      -15.39188102771949
C           28.74729892320562       -3.10741472038109      -16.04245224140004
C           28.89150253079683       -2.10285609039535      -17.18558304722868
C           30.27938202875877       -2.12377951083846      -17.82645961805369
C           30.43221159653285       -1.11070055405487      -18.96199327626143
C           31.81759011753488       -1.13370466765482      -19.58903117286851
C           24.44249144595416       -5.70431100869997      -10.64636708732098
C           23.28590886927019       -5.74184449817907       -9.87589185866940
O           23.19077114166971       -6.53227710475002       -8.74548052909347
C           18.86230840790895       -4.35003816056494       -7.58901913775736
C           17.74599717202111       -4.31154027337969       -6.79561963881055
C           16.49661765284430       -4.19122840868655       -7.40655438435947
N           15.20726209615153       -4.10134029352392       -6.92365744340327
H            0.59079009344153        0.27506084326244        1.37337711017606
H            0.34729058683606       -0.85079735442282        0.04066244019104
H            0.74185462915850        0.82856048217679       -0.29205708194839
H            2.62452226679159       -1.17238318969773        1.08987777554266
H            3.01546083222255        0.49434835061489        0.76688690859133
H            2.76415540349835        0.07456117213872       -1.70576632319423
H            2.37325857631005       -1.59098186554117       -1.38503473973965
H            4.62678317970772       -1.91938623708289       -0.30745603974221
H            5.01698073578476       -0.24920202993366       -0.60460040827911
H            4.77720740325087       -0.63139668596332       -3.08495608569930
H            4.38569606258541       -2.30179273040650       -2.79215334743127
H            6.63654465086210       -2.65205767122647       -1.72196540760654
H            7.02702171241144       -0.97535793645803       -1.97907628031499
H            6.79581439606311       -1.29787201362748       -4.46711911276864
H            6.40074136776619       -2.97429248431748       -4.21703516392261
H            8.64815787880151       -3.35677449129290       -3.15295019774389
H            9.04120845237357       -1.67388047503219       -3.36151462871746
H            8.81115121954153       -1.92690128667993       -5.85885402984499
H            8.42309726666013       -3.61114691345364       -5.65529809212734
H           10.67126721984848       -4.01438730368591       -4.60260409646892
H           11.05478047616066       -2.32338296509680       -4.75655458423507
H           10.82754016006505       -2.50321666641963       -7.26673886709902
H           10.46926616065713       -4.19850442303781       -7.11238837065732
H           12.72456608138578       -4.60829758035788       -6.10412640171509
H           13.07681055223987       -2.87923964334065       -6.19330683363196
H           17.46196098504005       -4.09182791093273      -10.67176154076361
H           20.96159596925113       -5.58196834084785       -8.62147639003082
H           21.45239321771861       -3.54692848260040      -11.69944157302755
H           23.49847800912340       -3.50652185110329      -13.02770891752165
H           25.64068596612488       -3.02756248857723      -13.20694328108245
H           25.08340541311156       -4.29984231740553      -14.30303326222273
H           27.44429846800046       -5.08561008601347      -14.57993848141908
H           27.99761889484352       -3.85969240253099      -13.47630487231502
H           27.14403510060921       -2.06720821652182      -15.03770620231728
H           26.59729275981357       -3.29306414384480      -16.14630483219593
H           28.96254552656483       -4.11790648846749      -16.41024665219017
H           29.51391141728660       -2.91144330829849      -15.28304310888064
H           28.67150615030150       -1.09352859935673      -16.81776309724073
H           28.12942335353262       -2.30059855795344      -17.94882954107697
H           30.49702134079834       -3.13141223693507      -18.20031183936145
H           31.04070204684194       -1.93407159402796      -17.06031856468065
H           30.20598928296825       -0.10545878197591      -18.58322355910989
H           29.66813987051987       -1.30458386273914      -19.72604699052442
H           32.58855597659128       -0.90850213952513      -18.85033033603484
H           31.91448374361841       -0.40571389355161      -20.39730077480822
H           32.04673759559006       -2.11687130950506      -20.00324372358859
H           25.28693567365314       -6.30203986265876      -10.36213133595256
H           24.02790454294461       -7.01961858095646       -8.60849323328545
H           19.83480256875664       -4.41461075802131       -7.13448487563192
H           17.81466643162025       -4.36125965667808       -5.72367000707139
H           14.94866817402244       -4.14238461639171       -5.94142005662691
