63
 energy: -9.348171110913 gnorm: 0.000304705592 xtb: 6.5.0 (97a52f5)
C            0.91360258046120       -0.04618899276463       -0.49479877825042
C            2.41743711895552        0.11169717355964       -0.33493973270955
C            2.93974412508525       -0.47724380759960        0.97646264214390
C            4.45231343749590       -0.32813230965359        1.14129244875789
C            4.97080546075514       -0.91214401954172        2.45555205129376
C            6.48463294675023       -0.77318760092081        2.61684834691547
C            7.00077963983771       -1.34973026495670        3.93523751535082
C            8.51557948303016       -1.21846297409725        4.09374411692418
C            9.02858295687347       -1.77779356127437        5.42064202040364
C           10.54331337422025       -1.64735830212338        5.57963207376738
C           11.05135917855173       -2.18203287241610        6.91805588945133
C           12.56475020133846       -2.04291117494363        7.08534034835139
C           13.04994094761095       -2.54724081402688        8.41105312457189
C           13.49548223064818       -3.85614616848732        8.55802509912455
C           13.90593921658598       -4.33047941219761        9.78108974207116
C           13.88090441059875       -3.51492979482502       10.92983990939824
C           14.30645035698668       -4.01125727192812       12.22310239538887
C           14.05544103909468       -3.30022356835664       13.41498006536891
C           14.45708605540364       -3.78619710509840       14.62406903567105
C           14.17660128042242       -3.01975590431552       15.86107663639067
O           15.12823917463396       -4.98179480650798       14.74586556203030
C           15.38541295687335       -5.68486988169189       13.59057085031618
C           16.11625266551566       -6.96862408149336       13.70977661989008
C           14.99392127808807       -5.23452584421570       12.36443820648216
C           13.41668143679983       -2.19520206580035       10.76329486666803
C           13.01211623478734       -1.73007669429468        9.53507195508378
H            0.55459858787765        0.38069161317747       -1.43314600323882
H            0.37747090649862        0.44686564655728        0.31729292337279
H            0.62444879523400       -1.09795994858423       -0.48009131973241
H            2.69323974539535        1.17241245564527       -0.39026029462295
H            2.93769744683705       -0.36204093511742       -1.17707645614604
H            2.66648687157905       -1.53697497688783        1.03771084712381
H            2.42944146415867       -0.00142359335667        1.82184539967052
H            4.72698113038420        0.73099539459546        1.07610219938370
H            4.96314052556986       -0.80846077588816        0.29880533689518
H            4.68963796763460       -1.96932953664891        2.52427635792313
H            4.46527358790888       -0.42649724669397        3.29819742823074
H            6.76693286351879        0.28332951133521        2.54227744349756
H            6.99046520171870       -1.26434915144620        1.77759885297478
H            6.71294937764540       -2.40447484635009        4.01335279405561
H            6.49920010886007       -0.85363064893556        4.77415090214911
H            8.80434677988101       -0.16497957548645        4.00329615775562
H            9.01798982227798       -1.72528547332696        3.26184415865149
H            8.73808827784110       -2.83058550859553        5.51374516776670
H            8.52709384109425       -1.26828692820258        6.25154757711362
H           10.83455483758465       -0.59632306304348        5.47024528481254
H           11.04670296168764       -2.17080702603123        4.75865910218675
H           10.76607782377147       -3.23440989702131        7.02916125217568
H           10.54430780449925       -1.66140612836041        7.73849026798401
H           12.85693370447964       -0.99363673302769        6.96849223598275
H           13.07934398183867       -2.57771466467840        6.27972022464533
H           13.50939730936961       -4.50208438615742        7.69723401325382
H           14.22418201800979       -5.35344945069352        9.86153702321082
H           13.51845981852262       -2.37162566711553       13.38881285749186
H           13.11230448231557       -2.80422048353032       15.95493845813166
H           14.71959342998729       -2.07481238129468       15.86447637388087
H           14.48441061852142       -3.59077075428977       16.73630248276207
H           16.34559155095875       -7.17592422366110       14.75443393021446
H           17.05546954876811       -6.93521444953095       13.15784687646425
H           15.51952885494958       -7.79474651110959       13.32341763627476
H           15.24381807349996       -5.81855181104195       11.49963059146729
H           13.39816037180054       -1.52631301192325       11.60375607256638
H           12.65833972009923       -0.71882271327786        9.43172283284757
