93
 energy: -15.068430328770 gnorm: 0.000449420586 xtb: 6.5.0 (97a52f5)
C            0.67827693454386        0.51161394056015       -0.23241034958665
C            2.18415227902549        0.31779906325429       -0.32326821297640
C            2.73133409142879       -0.59529910312085        0.77523282450124
C            4.24529561135511       -0.79286719245668        0.69230216259763
C            4.79073816122230       -1.70004697480325        1.79548003439308
C            6.30414841381781       -1.90185146221968        1.71282255736870
C            6.84825332089364       -2.79556263203056        2.82758609914075
C            8.36080318972373       -3.00373911566930        2.74709779054348
C            8.90079490257370       -3.88665279372101        3.87226957079791
C           10.41232146079081       -4.10046027331304        3.79607194097281
C           10.94598796319775       -4.97676921737780        4.92835724912379
C           12.45713292839145       -5.20602181319085        4.85114535980934
C           12.96416408193122       -6.08656207273311        5.93656851958050
S           13.72561958490596       -5.42911166902724        7.34463555173405
C           13.98991240055122       -6.97739709290869        8.07929455879828
C           14.64902305730056       -7.15422947045583        9.40433199655311
C           15.09347727734331       -5.84498793349942       10.05942286521570
C           15.74947206125882       -6.04509603806655       11.42538050565822
C           16.21397199273640       -4.73256449135279       12.05620853272815
C           16.85455972144813       -4.91754653751131       13.43178119520743
C           17.33480977704263       -3.60150728103140       14.04402606103796
C           17.95805779534776       -3.77318042218940       15.42938591974661
C           18.44908853850861       -2.45454429644566       16.02755580759943
C           19.05628647792093       -2.61548448493006       17.42131284875440
C           19.55468014229302       -1.29525297928137       18.01000180568149
C           20.15205445386507       -1.44849364349583       19.40969735236589
C           20.64729541784871       -0.13063367186593       19.98546337365939
C           13.50353576568275       -7.96592784003639        7.25881133967495
C           13.51650800940864       -9.41868591752449        7.49086559870854
C           14.03896897034382      -10.14078501582336        8.61763261788854
C           13.89321252288375      -11.47899310284562        8.52201822393343
S           13.10837039534683      -11.92985154570757        7.04697422096420
C           12.97089838086986      -10.26333215826356        6.54278976442622
C           12.39126016054825       -9.76428284903307        5.34041080538172
S           11.66183331572461      -10.68694562430826        4.04923849324030
C           11.30081790591635       -9.25277954720678        3.15118643292617
C           11.71541188713156       -8.14419561131742        3.79929282622292
C           12.34697760393024       -8.41111951613843        5.06190795487243
C           12.91295956720290       -7.45542977174456        6.02743141839038
H            0.29957861475105        1.16502237001729       -1.02192533816310
H            0.39411485457869        0.95420400038887        0.72434372609590
H            0.15187040324335       -0.44134615074633       -0.31447331818876
H            2.69392796662673        1.28939521533347       -0.27423728836364
H            2.45397487044164       -0.09416302941430       -1.30496790810497
H            2.22966585764960       -1.56973965170773        0.72798008516244
H            2.46670746337563       -0.18721521766125        1.75851731119524
H            4.74683712679546        0.18178800991899        0.73559789437290
H            4.51006397572589       -1.20565898094411       -0.28892549173995
H            4.28672715240765       -2.67354434471553        1.75482387632649
H            4.52796727619123       -1.28488313066472        2.77626811992658
H            6.80786791234898       -0.92783018835781        1.74268253022858
H            6.56663864845650       -2.32814989624408        0.73677311195435
H            6.34106072875231       -3.76790261724390        2.80072646243452
H            6.58768092730168       -2.36618741965455        3.80285871275287
H            8.86828650031118       -2.03138960816033        2.76584194193404
H            8.62182461809636       -3.44234570087112        1.77611532114012
H            8.39088165720896       -4.85782633639132        3.85520505480689
H            8.64033954968940       -3.44607807251234        4.84256241796973
H           10.92403267349401       -3.13025824064678        3.80823868227049
H           10.67306725413912       -4.54776601406824        2.82902677014404
H           10.42347580125530       -5.94059850995603        4.92907066820667
H           10.69556966760874       -4.52430800719193        5.89579449114971
H           12.97311745729267       -4.24001218538836        4.91287130880049
H           12.74656140207347       -5.61123483150778        3.87590873075222
H           15.52078890176759       -7.80794292424225        9.28536760215997
H           13.96034796297019       -7.67663057524162       10.07841659841377
H           14.23092887574146       -5.17486087672234       10.15926001550025
H           15.78574290119305       -5.31905107692682        9.39072346588203
H           16.60062067722914       -6.73038903807194       11.32959920586274
H           15.04935101181724       -6.55266329704663       12.10027634647217
H           15.36501964050298       -4.04234499736269       12.13604925987012
H           16.92317398804444       -4.23326849938434       11.38447955419886
H           17.69529896128932       -5.61813648880611       13.35663554739395
H           16.14022054856724       -5.40126293343471       14.10931834158847
H           16.49678307668797       -2.89604601621697       14.10316626849014
H           18.05909756229824       -3.12593087436533       13.37119085484146
H           18.79007484988011       -4.48593867414809       15.37432418593579
H           17.22999903824469       -4.23700654940229       16.10623142910479
H           17.61963304043731       -1.73780872881864       16.06864923325049
H           19.18604390875389       -1.99773971922883       15.35551433558568
H           19.88142970698146       -3.33728657486661       17.38315162833198
H           18.31660519905567       -3.06412999933851       18.09580870959909
H           18.73112360500006       -0.57113812738233       18.03901266903680
H           20.29968659514294       -0.85091558333060       17.33844130577544
H           20.97185101096386       -2.17860215029153       19.37624442780882
H           19.40241791888879       -1.89477417903929       20.07690486367948
H           21.42102812163037        0.31020793482781       19.35378747039945
H           21.06957831444081       -0.25183757698360       20.98578383856688
H           19.83746979370171        0.59810298839481       20.05721192013020
H           14.50441729785372       -9.67000159371300        9.46702779993648
H           14.21692363889518      -12.18992983396204        9.25887326201001
H           10.80653073917779       -9.26188667535899        2.19789967155942
H           11.57396623088055       -7.15579066223988        3.39679869791570
