140
 energy: -23.483025598780 gnorm: 0.000343958504 xtb: 6.5.0 (97a52f5)
C            0.52599477951371       -1.23034022141961       -0.43384423614701
C            1.68959938036416       -1.89320571647139        0.28754679863522
C            2.94920585874588       -1.97772395831849       -0.57575158110570
C            4.13081188671923       -2.62778268877250        0.14486409597208
C            5.38717736157445       -2.69970093557927       -0.72264903650961
C            6.58375053492610       -3.31763359467116       -0.00013507606675
C            7.83318625460867       -3.38495769413674       -0.87725308749116
C            9.03170054270845       -4.00953078246046       -0.16541868977256
C           10.25309373218096       -4.15289450743743       -1.07305481103926
C           11.42429950715892       -4.84384896596517       -0.37970725703774
C           12.56615319948989       -5.21025306371472       -1.33054945685180
C           13.64376641894339       -6.03885565389207       -0.63164504852150
N           14.35747002821850       -6.97142419330639       -1.52490116826457
C           15.50121315381415       -6.67809832277558       -2.22608394809107
C           15.99931689241827       -7.84461035909155       -2.75530425601388
C           15.15867296040340       -8.88708981412059       -2.36679172169579
C           14.12855058258888       -8.34457699025851       -1.61108007813337
C           13.03465740632335       -9.06428413859443       -0.98707129830110
C           11.79172533799576       -8.54995701664023       -0.92902814214086
C           10.65250290758428       -9.06781725890648       -0.20465808115263
C           10.85146468070690      -10.02905014181054        0.77284726857082
C            9.82853775396022      -10.45448309650067        1.58936754021550
C            8.55100926709635       -9.91817592049182        1.49790631035138
O            7.51426986749179      -10.36374893474812        2.31705230766274
C            7.91097414740270      -11.08555016161734        3.48507513053093
C            6.75497397416761      -11.27170675192112        4.45847604734689
C            7.16563434591779      -11.98890107754064        5.74320210513806
C            6.00879086204735      -12.16077381502637        6.71476317248959
C            8.29454707433220       -8.90144835813597        0.51260409425954
C            7.02927047009505       -8.21956659617048        0.44501755370651
C            6.04251685106724       -8.31393115613967        1.50670091009726
C            5.18954613288208       -7.33478423695653        1.86992878767744
C            4.38241804945416       -7.39118335414796        3.08819760960120
C            2.99343530441467       -7.40938697962973        3.11520679907399
C            2.58766455321076       -7.46270439645341        4.44485287356086
C            3.71534018610981       -7.46194580871130        5.22695381968522
N            4.82554408228357       -7.41293417094316        4.41795866122592
C            6.18797514368049       -7.27494120883559        4.99699077548001
C            7.32627905196918       -7.17595020373237        3.99540363199860
C            8.72153978372835       -7.12880656439992        4.61443216037139
C            9.81011501917002       -7.06301830203386        3.53794206200255
C           11.21023777728699       -7.39841777889174        4.04808591936658
C           12.25407910661915       -7.35645574990667        2.93147349859445
C           13.61521838983269       -7.92293570330168        3.33603047581790
C           14.60867625893800       -7.91516338795766        2.17501372601238
C           15.94814280123647       -8.57585234749454        2.48969957284052
C           16.88339991979994       -8.58401835033083        1.27949864101317
C           18.22645420791439       -9.25958324824761        1.55526067790106
C           19.13782180726617       -9.26776813657627        0.33761637971689
C            6.79943021324507       -7.34772466803137       -0.60804856007370
C            7.75974112458326       -7.08901258414042       -1.55906532130235
C            9.03260155005844       -7.63457740682430       -1.47199610832743
O           10.01716047319732       -7.33367156815205       -2.41598080181267
C            9.55715784283830       -6.96115187373975       -3.71668070893552
C           10.71252678169583       -6.88797155821745       -4.70653458385679
C           11.48816512786320       -8.20023098363718       -4.77685603834920
C           12.73636441161636       -8.10536136561653       -5.63948339864121
C            9.33295196759144       -8.52945717049020       -0.38639098610992
H           -0.36830559660644       -1.17616939254214        0.19139342417420
H            0.26013164696240       -1.77740754089596       -1.34050807776954
H            0.77734805870916       -0.21159844248615       -0.73573841841812
H            1.40656091452840       -2.90227048236077        0.61608393653715
H            1.92027868602566       -1.34825488046489        1.21279319554800
H            3.23207729130010       -0.97231495341606       -0.91153727697381
H            2.72863103865122       -2.53236160037490       -1.49617712748777
H            3.85321838609668       -3.63542846959991        0.47801186340239
H            4.35053793721237       -2.07374018802729        1.06576328300920
H            5.64998434279254       -1.69368227382962       -1.07255448113549
H            5.17269447168505       -3.27032269498741       -1.63474897714088
H            6.32441227883956       -4.32411659214336        0.35002560037822
H            6.80189180234182       -2.74674134519906        0.91077174763800
H            8.09504254886001       -2.37930260705904       -1.22868883192911
H            7.60970320016583       -3.95384984761680       -1.78798432158736
H            8.75018295184333       -4.99519668681075        0.22588927643245
H            9.29208803018041       -3.41627862771217        0.71960548059223
H           10.56356586756188       -3.17103218998497       -1.45052324186492
H            9.97338168508782       -4.72572544145848       -1.96437633829037
H           11.05710313464948       -5.75617449121671        0.10723396895031
H           11.80156181024863       -4.21923073244911        0.43920174061317
H           12.99977267124335       -4.30942656594726       -1.78166314008030
H           12.16637795764143       -5.77820979601279       -2.17749536137915
H           13.18615434458956       -6.63701340029840        0.16024478612844
H           14.37319525539762       -5.39522173992459       -0.13023316235731
H           15.93351085187993       -5.69440558570755       -2.31040610799325
H           16.89189387737707       -7.93966634551606       -3.35376253958619
H           15.27639228686091       -9.93077279555143       -2.60876187428005
H           13.23875784821036      -10.03604143288667       -0.57404232875420
H           11.63564116457897       -7.63339441259391       -1.46226151821747
H           11.83849362966708      -10.43081946837373        0.92151569877327
H           10.03336657575071      -11.21705266864132        2.31821347300471
H            8.72593931884197      -10.53554061707219        3.96929095555151
H            8.30562132611335      -12.05898625394271        3.17387663881350
H            5.94690332055218      -11.82137858154728        3.96221140430061
H            6.32470023826143      -10.29345272989632        4.69911743264977
H            7.98291309028983      -11.43340143088128        6.22275808851913
H            7.59756998291516      -12.96670155705715        5.49072637331270
H            5.59019658132662      -11.19503545449204        7.00455694643350
H            6.31318327935840      -12.67496008769362        7.62938760190407
H            5.19946074591799      -12.74006573267220        6.26610560796579
H            6.06282396642772       -9.18615047709683        2.13084382976268
H            5.14032228847091       -6.43528656163664        1.28015046011365
H            2.35105695818513       -7.39410197378493        2.24966917554450
H            1.56849658319808       -7.48621103177293        4.79810700098179
H            3.74625023373020       -7.47852682221106        6.30450389131844
H            6.35195327029225       -8.12631735867244        5.66414368841618
H            6.18617740092958       -6.39107638983710        5.64221376842179
H            7.17547881867598       -6.30596567057356        3.34556083484752
H            7.29086065559108       -8.04631301571213        3.33686718598964
H            8.87220796558121       -8.01977475376498        5.23656522160974
H            8.81018996748455       -6.27877291028525        5.30167142975146
H            9.80830291854217       -6.07427584165848        3.06262851977752
H            9.55607662005524       -7.75915533466765        2.72940270087861
H           11.20104043784355       -8.39669519427944        4.50297542726257
H           11.49357534210906       -6.71565956115840        4.85821555957063
H           12.36940912360079       -6.32704976468225        2.57050257104842
H           11.87749245354405       -7.91611584428199        2.06699089702684
H           13.49077130988933       -8.94806878353936        3.70608988949080
H           14.02145640785375       -7.35807186011639        4.18378710144452
H           14.78047225250785       -6.88321368354122        1.84675109753093
H           14.15781440648198       -8.42026184304976        1.31296154752251
H           15.78194287300755       -9.60345225082092        2.83562762820059
H           16.42902199382221       -8.06303186459625        3.33159646779480
H           17.05086123417664       -7.55534021095243        0.93707482912056
H           16.38813699123450       -9.08319196954977        0.43739931128393
H           18.05108819230862      -10.28629298440888        1.90366105358406
H           18.72110966325009       -8.75513540347076        2.39612899839727
H           18.67345434145140       -9.79362335810584       -0.49895866873739
H           20.09375573531187       -9.75542043738661        0.54259565234186
H           19.35281113741832       -8.25243665186905       -0.00134922517520
H            5.84115235281222       -6.86353001863699       -0.68593698688518
H            7.52770664146247       -6.41400319996825       -2.36190683754092
H            9.04182363396463       -5.99699193071927       -3.64978871843178
H            8.82268847693479       -7.70855014719438       -4.03737358007491
H           11.39418079591387       -6.08479632519940       -4.40399350782822
H           10.35328652400941       -6.60784097001972       -5.70472258174887
H           10.82661153303271       -8.99624230826304       -5.14401681159583
H           11.76023469930236       -8.50837574242076       -3.75892022741683
H           12.48789088596926       -7.82473447473854       -6.66475511767258
H           13.28088832034797       -9.05158855355964       -5.67902846759964
H           13.42335465518010       -7.34877938561877       -5.25526633235295
