74
 energy: -13.269420078176 gnorm: 0.000752048907 xtb: 6.5.0 (97a52f5)
C            0.61583537299681        0.53788839336220       -0.03099449180702
C            2.07053977723244        0.43900702508448        0.40106486747416
C            2.56845691845970       -1.00503181444735        0.48361653957036
C            4.03267686558842       -1.10943947124680        0.91076293780767
C            4.53834249376897       -2.55083859949834        0.97401372571957
C            6.00383987141616       -2.64991446480975        1.39784900484839
C            6.52566608631038       -4.08639085344758        1.42482572791681
C            7.99503068673409       -4.17819033637957        1.83602407888221
C            8.54259693537976       -5.60408680929215        1.79011728325300
C           10.03361484386624       -5.67929515175642        2.11601199649161
C           10.61879075380241       -7.07241591948211        1.93845307715669
N           12.07134997959936       -7.09230182942674        2.15711385721374
C           12.66966865715004       -6.92007139574197        3.36676377526616
C           14.03150024152441       -7.12854624273644        3.22025162796761
C           14.27437896923006       -7.44395727797243        1.89894198915526
C           13.05446904696683       -7.40658841249299        1.20173571707917
C           12.89624807760665       -7.76391232496591       -0.18924928106541
N           12.27468278170655       -7.08397795788917       -1.20567152489216
C           12.51935439296185       -7.63137603372199       -2.45466622114993
C           12.14320221735191       -7.07694932321508       -3.65992632031250
C           11.51195037710067       -5.84214122636216       -3.65381694037651
C           11.07091228790780       -4.99343356951049       -4.71368845243701
C           11.16317739191350       -5.25788881317862       -6.16967954802045
C           10.52998798089778       -3.86267914410080       -4.12754476398312
C           10.62227542000773       -3.97968525931056       -2.72213169161574
C           10.10570336644464       -3.03709464240864       -1.71210627890882
N           11.21304515329394       -5.15781454259101       -2.48133263303850
B           11.37999031569090       -5.82652527170368       -1.10174118886724
F           10.10494348887844       -6.21502189138509       -0.70622347542866
F           11.96273232730857       -4.91571992678572       -0.22994826509527
C           13.35389734236688       -8.79633609902779       -2.22175739025752
C           13.90856159308572       -9.73415855186190       -3.08392611091104
C           14.69887352644990      -10.73432289042136       -2.55443266685962
C           14.93983932873503      -10.80591365732512       -1.18585709354657
C           14.39761940987495       -9.87918533056624       -0.31998549586220
C           13.60076066046612       -8.86143468707334       -0.83738814153959
H            0.27399327844380        1.57362605555586       -0.08723405243082
H           -0.03941375653784        0.01307904806645        0.66634777608667
H            0.46508856513369        0.08868900510440       -1.01413764011304
H            2.20957831615011        0.92670793018462        1.37485988133416
H            2.70899305348001        1.00285922041254       -0.29174088494552
H            2.43258574570704       -1.49667812549649       -0.48717454534603
H            1.93978690031781       -1.57257821695204        1.18022315689615
H            4.16705428632461       -0.62854027225689        1.88711287018781
H            4.65864560462049       -0.53121327271136        0.22044175549874
H            4.40492450373223       -3.03015542408516       -0.00330247479470
H            3.91431583639478       -3.13192699971979        1.66356808665731
H            6.13450862903019       -2.19107600680374        2.38522378648992
H            6.62238867765255       -2.04842306660604        0.72081464061083
H            6.39244975340779       -4.54244884745915        0.43635921654858
H            5.91253883090060       -4.69200420085927        2.10292492391609
H            8.12750511148242       -3.76121948375154        2.84147894736358
H            8.59626619884503       -3.53661841132441        1.18090282733106
H            8.36996067434877       -6.02544513363571        0.79248537037888
H            7.97642678377890       -6.24708392387543        2.47460010519234
H           10.21556856995826       -5.32365122461245        3.13668786060119
H           10.58346895012312       -4.98613275669783        1.46962815606114
H           10.42181704186747       -7.45021336750627        0.93232510142327
H           10.15064546239319       -7.78053012775893        2.62837159322413
H           12.14972258162092       -6.68499119139282        4.28088935435175
H           14.76970231921992       -7.06740794930380        4.00414952522394
H           15.23476953311708       -7.66814937693248        1.46487764974809
H           12.39627705807258       -7.55875437672666       -4.58522975111421
H           11.63076445081438       -6.22217187683832       -6.36935615981151
H           11.75575364888983       -4.48889831694059       -6.66658902405286
H           10.17227034696506       -5.26597398845347       -6.62526409639145
H           10.09708218302983       -3.03101038396184       -4.65656042856659
H           10.38274441162030       -2.01115514082084       -1.95614638229577
H           10.51143868634746       -3.27169954046971       -0.72844842509274
H            9.01860190432713       -3.09233980976506       -1.65047980552720
H           13.71947910786006       -9.67160075981579       -4.14097779455247
H           15.13615880836328      -11.46909745584519       -3.21031899808042
H           15.55911489325693      -11.59732226084639       -0.79659954198283
H           14.57287810884646       -9.93751566533448        0.73937919016656
