135
 energy: -23.735140838949 gnorm: 0.000511369160 xtb: 6.5.0 (97a52f5)
C            0.78493902671957        0.28952250598359       -0.24028386317160
C            2.23948178754743        0.59980624341749        0.07793527213775
C            2.87373827933432       -0.42977076278239        1.01465622055941
C            4.33503918819977       -0.12263911312423        1.34325633236536
C            4.96421169950707       -1.15028545894991        2.28422325715651
C            6.41887865511562       -0.83333851429455        2.63126855905934
C            7.04220129456256       -1.85482811957196        3.58264305597142
C            8.48454243830708       -1.51835774105415        3.95962486299552
C            9.10294449123056       -2.53137593122636        4.92135599003927
C           10.52261838889635       -2.16742875212642        5.33279817878549
O           11.07445422047606       -3.10787343207191        6.25132162010863
C           12.31795975707591       -2.74882010157800        6.77936081057519
C           12.85725209379399       -3.56405378426699        7.77264474922180
C           14.08026743914784       -3.28965386952653        8.38184027683785
O           14.52838923922158       -4.17960518694154        9.36197013895261
C           15.80264934191608       -3.86383489350304        9.91720981720625
C           16.25363824867186       -4.89511408158627       10.94211737315256
C           17.62078785729445       -4.57654668058237       11.54414716521032
C           18.07705631937259       -5.61000504713812       12.57354919515901
C           19.44156922733551       -5.28482494186352       13.18096231471208
C           19.89778342008166       -6.31417251583079       14.21501291576554
C           21.25648652293403       -5.97958299056504       14.83075508566860
C           21.71134541146018       -7.00336932362493       15.87109717976825
C           23.06622029888884       -6.66253080880722       16.49398183116459
C           23.51106211229520       -7.68090941821230       17.53224361023109
C           14.77282324758306       -2.14736463754607        7.97300503668534
C           14.27233030246251       -1.31432545343772        6.97579137528546
C           15.02427022841276       -0.10916102526426        6.55571273878200
C           14.57834843524490        1.19035313708670        6.87256138116355
C           13.42471104759294        1.64285260602068        7.60654037356334
C           12.38321856011581        0.81149865603656        8.25675008274276
C           13.43314546560828        3.01365870500733        7.58003819496446
C           14.59480581480033        3.46421947463631        6.88357382205787
C           15.01028738470687        4.79019380984409        6.55888888212214
C           14.57302528748935        5.95547631821896        7.11254759214530
C           13.81906366583523        6.11648896477800        8.33795148197105
C           12.97633183596442        7.22740237745883        8.50526150657107
C           12.27009575187805        7.40968330981845        9.66109970916211
C           12.37193105584776        6.50308410822415       10.73282451356379
O           11.61243863651757        6.75264976885752       11.86259650934538
C           11.74154318657946        5.78938986848041       12.88565789610282
C           13.24490316338902        5.40995303225601       10.57815250941587
C           13.94948899689058        5.23063001982628        9.42023022981348
N           15.23047661462988        2.33696385138111        6.47913413486616
B           16.55761917223051        2.34639336097210        5.70659927944340
F           16.39186197352797        3.03405641627135        4.50960599140221
F           17.54291787888112        2.93169288275004        6.49379479007584
N           16.94724810902067        0.89199161128105        5.40842079037944
C           18.05177030062150        0.54810079879799        4.70371192591506
C           18.99964372113733        1.46627391730578        4.18037478792632
C           20.10110318245777        1.11550208924473        3.47689231097406
C           21.07477212217420        2.03062814453834        2.94973496677788
C           22.17247442531989        1.53819358133793        2.22586720700462
C           23.11794128672197        2.38258998108597        1.71500988762674
C           23.02944918794087        3.77534665675208        1.89515122494901
O           24.03007917010716        4.56032939559649        1.34904725626514
C           23.88504102100179        5.94535401724237        1.57693695700156
C           21.92761516434351        4.26752452542208        2.61948317401435
C           20.98193958002948        3.42076299592060        3.12925909540570
C           18.03164300998071       -0.87590791041849        4.62535898744149
C           16.91882732947618       -1.34318430653994        5.27857420099716
C           16.54166731576762       -2.77126371266086        5.41176647845465
C           16.21465614438332       -0.20209022756945        5.80655483804528
C           13.05189941059106       -1.62815583874753        6.38330088410638
H            0.34448776340546        1.03078390328341       -0.91050254122030
H            0.17891831834375        0.26629425185609        0.66705956955555
H            0.68548005461589       -0.68627773478013       -0.71878107339252
H            2.32276311699842        1.59806800232555        0.52723687753102
H            2.82536762461493        0.65568671002727       -0.84883956530976
H            2.79906183751260       -1.42868656546868        0.56834752740680
H            2.29291922844326       -0.48852533460270        1.94301767746047
H            4.40952383373568        0.87700608409278        1.78795478366608
H            4.91793657838485       -0.06651692443395        0.41608472711917
H            4.90140450459879       -2.14872172043782        1.83504778991943
H            4.37290961996362       -1.21444257301574        3.20558177207325
H            6.48034380869105        0.16731501722404        3.07556430051727
H            7.01370849791611       -0.77428410381813        1.71196840998108
H            7.00167701127272       -2.85322885532115        3.13080424565934
H            6.43339337287895       -1.92834315412723        4.49186829761863
H            8.52224287030296       -0.51786566075762        4.40709421946720
H            9.09717256974433       -1.44855174669602        3.05285423320479
H            9.09974321826599       -3.53013065244316        4.47056833350020
H            8.48152414040934       -2.62108062013073        5.81958395512781
H           10.53309279512482       -1.17936107625915        5.80613090266599
H           11.17687380734557       -2.12241313631496        4.45491260499088
H           12.30865205298840       -4.43254229882511        8.08272550691912
H           15.73811362407065       -2.87209445941859       10.37883748486126
H           16.52775079576719       -3.80311106980032        9.09793834492270
H           16.27182236058395       -5.88547070693908       10.47337037372830
H           15.50163191712500       -4.96822416059861       11.73581269031587
H           17.59602925601256       -3.58264113045121       12.00674350475128
H           18.36656273295020       -4.50009504408854       10.74385061563670
H           18.10719991370797       -6.60342336238096       12.11007894740429
H           17.32878067360502       -5.68978131886798       13.37125094015028
H           19.41085920799814       -4.29014184313654       13.64152565594005
H           20.19046337052506       -5.20690448873173       12.38375969111936
H           19.93679286831793       -7.30814808447894       13.75343164361236
H           19.14502952668825       -6.39721934305408       15.00814190026660
H           21.21711434131618       -4.98363224847375       15.28802929072093
H           22.01022527584787       -5.89985835477980       14.03824627814253
H           21.75636448532767       -7.99880048754374       15.41316160057625
H           20.95449181989785       -7.08679317308935       16.66030117886670
H           23.01628788862525       -5.66228309918110       16.94383427416475
H           23.81941490796891       -6.57922477916249       15.69957124574115
H           22.78999430093003       -7.75266401951927       18.34826005829798
H           24.47826037385946       -7.42467173085796       17.96989457983779
H           23.60197270384684       -8.67645725065327       17.09456088318450
H           15.71025759140814       -1.88872285261170        8.42656713119274
H           12.82196926135558       -0.06535102656223        8.73324812721618
H           11.64542144335500        0.47200755566041        7.52966888064157
H           11.85787803450826        1.37719503189866        9.02705886618914
H           12.67070058763671        3.64514999702839        8.00101790580543
H           15.71241512365900        4.84978882501753        5.74330270608418
H           14.83676991056330        6.87220084733449        6.60744588597200
H           12.88000423033215        7.93127986055561        7.69641368849703
H           11.61548078198511        8.25564258570295        9.77375426477572
H           11.08422453393920        6.06516364168074       13.71137520873285
H           12.77010109687134        5.76485954101966       13.24840865031130
H           11.44500475717590        4.80708469000486       12.51497403712299
H           13.36674154770134        4.70833072738875       11.38294373341603
H           14.63810638827726        4.40799364666539        9.33429365760481
H           18.80175565706167        2.50330734213561        4.37461159358730
H           20.27030588105491        0.06938199319632        3.29472866007388
H           22.26265536044801        0.47598183773280        2.07524211893280
H           23.95532348216486        1.99588850310174        1.16170391530981
H           24.72348082308983        6.46613864173766        1.11244118403535
H           23.89403206700441        6.15123062698966        2.64828140688213
H           22.95745992870799        6.30347127688784        1.12801128500592
H           21.82564686223403        5.32593628772787        2.77557548766551
H           20.15256865416545        3.82898663170004        3.67821069675100
H           18.76303028600294       -1.48803688745808        4.12732749566874
H           17.05824651265973       -3.38295131757726        4.67135770320507
H           15.47012840319369       -2.90856003238549        5.26485197150719
H           16.80176595460867       -3.15209550542204        6.39959849009637
H           12.68477092162209       -0.98561667580634        5.60625655688277
