48
 energy: -10.754025228535 gnorm: 0.000972106156 xtb: 6.5.0 (97a52f5)
C            1.31392532773021       -0.32121456190718       -0.00717694777983
C            0.30529473525519       -0.80625734121475        0.73566942894296
C           -1.09750519284473       -0.79095899600948        0.35733189171018
C           -2.07187308325546       -1.12370363388748        1.30287367395939
C           -3.40687680030384       -1.11622832952226        0.98039923306869
C           -3.82692007352905       -0.78029185222373       -0.30549348764037
C           -5.23727436863201       -0.75899985849213       -0.67063903630603
N           -5.67535794275387       -0.52128244836337       -1.90637685539118
C           -7.02243194121969       -0.57309548907444       -1.83920503404328
C           -8.00095741664534       -0.37595513771114       -2.87939127463931
C           -7.62670540336602       -0.10621788130248       -4.18724139043882
C           -8.60917055106052        0.06858069270301       -5.11684866060163
C           -9.92812467045583       -0.02873213841291       -4.71778418781056
N          -10.32991224135513       -0.28199271347212       -3.49047953124513
C           -9.37459961271581       -0.45870278708884       -2.56082524321745
C           -9.79252629590576       -0.74315853989488       -1.18686912882534
N          -11.11036765878212       -0.80924880906976       -0.92737991681741
C          -11.46132947868047       -1.05995999879149        0.31548452932521
C          -10.58276929978699       -1.26139486544841        1.36256451414853
C           -9.24246466330684       -1.20113053179971        1.11832511250304
C           -8.82233532317797       -0.93693618552723       -0.17807106473601
C           -7.43124569001719       -0.84761551614615       -0.52658678782689
N           -6.28894475623057       -0.96886832328633        0.21221623202439
C           -2.85884857530172       -0.45747811601362       -1.25388271535170
C           -1.52377783242745       -0.46081896979361       -0.93243234965414
C            2.71743488270987       -0.34224176926769        0.36708078317543
C            3.20252823750662       -0.98789802489794        1.49769454230293
C            4.54833728574059       -0.96009191339553        1.76900040811535
N            5.45853957670111       -0.35054883315170        1.02614490675165
C            4.99122306805262        0.26007646975572       -0.05039041399567
C            3.66955205284391        0.29440571524859       -0.41911703178650
H            1.08327444227003        0.14076212457554       -0.94899628967244
H            0.53245690880610       -1.22619514486493        1.69796410893985
H           -1.76222113165865       -1.38403791728036        2.30049684075602
H           -4.13984441554269       -1.37466225038205        1.72309038688468
H           -6.58433531523481       -0.04130553445813       -4.44630750248870
H           -8.36160649992401        0.27915538979500       -6.14428192387101
H          -10.70660721035200        0.10970344696047       -5.45273368112731
H          -12.52235041022327       -1.10724653433746        0.50873688983424
H          -10.95122965905805       -1.46246419650346        2.35507264065617
H           -8.52174978148400       -1.35082638807262        1.90281497818014
H           -6.23433709220033       -1.16024958717107        1.21175548365581
H           -3.17834395697872       -0.20270851943332       -2.24919007370593
H           -0.79862641887889       -0.21937390818540       -1.68854823955291
H            2.53206599422979       -1.51457272719729        2.15261019018773
H            4.91614607741409       -1.46584153110153        2.64934112399218
H            5.72196233173964        0.76231090150879       -0.66710985240678
H            3.36267984229501        0.81356306359801       -1.31063927817395
