106
 energy: -19.530876144857 gnorm: 0.000566697482 xtb: 6.5.0 (97a52f5)
C            0.38134992124249        1.41157097369710        2.52721752107756
C            1.68446396293041        2.06521533376287        2.09372475566438
C            2.81650608855701        1.85543721737276        3.10090953311257
C            4.13308621615852        2.50141003267832        2.66806581568657
C            5.26560137996072        2.27828838986597        3.67068693791567
C            6.59100792000453        2.89714544652123        3.22598401421957
C            7.72829160577653        2.64872486796728        4.21716182015625
C            9.06534022425049        3.22443594615316        3.75109148292080
C           10.21070291023589        2.93611447861851        4.72037748130016
C           11.55413885489098        3.45071513219913        4.22280154699290
O           12.61957376117180        3.11038669863169        5.10733991882131
C           13.90469200269628        3.27886799374959        4.56840115370545
C           14.97607157852385        2.64326020524677        5.24548127362023
C           16.26106298372702        2.71026492786448        4.78922882867875
C           16.52308735040812        3.43815620374277        3.62036635576514
C           17.70979755615251        3.68235032284101        2.87619272031570
C           17.33014391353931        4.48211713844050        1.78556758361906
O           15.97345274532618        4.74884598307106        1.81995085027549
C           15.47743188183042        4.09962016783583        2.93627840304013
C           14.17180393850979        4.01483449716984        3.42436784129745
C           18.34444656059366        4.85289228695648        0.86395226327999
C           18.33088824952118        5.62321724082720       -0.31394562371301
C           17.47085747710600        6.40930862364697       -1.17341838053899
O           16.27660687830156        6.64822643860866       -1.04250432446818
N           18.31441050646962        6.85247556931613       -2.22453399053319
C           17.95866234087025        7.63970828782781       -3.31703973107242
C           18.87922245404593        7.95555769446853       -4.25399959936480
C           20.21012601083294        7.47051563061678       -4.11259873708279
C           20.60176470609669        6.67806714667621       -3.02068077649335
O           21.93447951531754        6.32157605934325       -3.12718098487761
C           22.39529498609228        6.88088026916114       -4.30628933843024
C           23.65425776897414        6.81466032322611       -4.90790942023011
C           23.87986214745111        7.45159115903682       -6.11862780417822
O           25.09902945550992        7.41630188555817       -6.81217177235493
C           26.03791813181641        6.45939227776040       -6.32799404362035
C           27.21062633783688        6.28157413606920       -7.28230620807450
C           28.21612988833056        5.23420555331370       -6.80723532065805
C           29.35815830682641        5.01037576057996       -7.79834234846900
C           30.35810101085412        3.95293116527432       -7.33045698837608
C           31.48048695348512        3.70377981795300       -8.33824824133850
C           32.48206997423289        2.64820607508379       -7.86916546670284
C           33.59239255739103        2.38278575243020       -8.88631092769648
C           34.59894747460505        1.33182541687492       -8.41471209166112
C           35.69487224857882        1.06494450489954       -9.43495641467431
C           22.82658951827309        8.18741047231909       -6.71811326674252
C           21.58776836723493        8.26892373549133       -6.15113701589424
C           21.35936799742261        7.60684585519127       -4.93734149796407
C           19.61235160654466        6.37661787589536       -2.04706009708733
C           19.63485769103468        5.62330028122935       -0.85715267801095
C           20.49304263368123        4.84274122989004        0.01081475096008
O           21.68925895742057        4.60959873486742       -0.11245369023264
N           19.64583878823451        4.39566027194912        1.05841648078681
C           19.99207112680020        3.60599136587512        2.15273875553120
C           19.05390649902952        3.24847785075214        3.05744817958959
H           -0.41753979628691        1.56806968126940        1.79955194029780
H            0.03850003957320        1.81148791916453        3.48276717170494
H            0.50372893843416        0.33472276182409        2.65405260393475
H            1.53350597465589        3.14113905569927        1.93714407946459
H            1.99394391749627        1.67606640911243        1.11507455018079
H            2.97000378332005        0.78169068673508        3.26159799172067
H            2.51696754365285        2.25014916207696        4.07899699004900
H            3.98383760084078        3.57656378338042        2.51351250873827
H            4.42872165354559        2.11010264967915        1.68742554881231
H            5.40104840014390        1.20288304442717        3.83640114540078
H            4.97857997971995        2.68377962248948        4.64809052112441
H            6.46324470108948        3.97513696048899        3.07235852813159
H            6.86874237772670        2.49939793728156        2.24273099365950
H            7.83447058588792        1.57089954358743        4.38840548942364
H            7.46529899705457        3.06864657439045        5.19521095463716
H            8.97114846430669        4.30624898082160        3.60007106497791
H            9.31248903925733        2.81859142513532        2.76292945308312
H           10.28640891395205        1.85720590310112        4.89616637300897
H            9.99444050293021        3.37120556340365        5.70233946329426
H           11.53433446577714        4.54084159031105        4.11391376368938
H           11.77816841097341        3.02210332931636        3.23928584171866
H           14.74462236434811        2.08565090806066        6.13544733319783
H           17.06537875598307        2.21482493483836        5.30347636846803
H           13.39222873684289        4.52937180097212        2.89816518598981
H           16.94054503897793        7.97868419377067       -3.38559082415632
H           18.62329678845725        8.55935011147417       -5.10622924478066
H           24.43131239495532        6.26615608072040       -4.41328735043896
H           25.51532419697310        5.50568669871925       -6.19243571290997
H           26.38754773107408        6.79127318919369       -5.34400217743387
H           27.71013623015641        7.24591355831033       -7.42693594968111
H           26.82662053870115        6.00786624819552       -8.27140925523904
H           27.69833119747546        4.28495626074310       -6.62561247037338
H           28.62363543857480        5.52847206239497       -5.83288209055499
H           29.88021215227309        5.95725580959157       -7.98010656729976
H           28.94641229174749        4.71979989088222       -8.77217276908415
H           29.83107679266342        3.01286834330256       -7.12880607652106
H           30.78703185730035        4.25233520304839       -6.36692815924826
H           32.00562291961439        4.64383133437910       -8.54493768635609
H           31.04980123543591        3.39989556322692       -9.29973116345595
H           31.95411997407906        1.71276293740506       -7.64912425858275
H           32.92330374777920        2.95847121744180       -6.91459746067709
H           34.11654129809256        3.31910209244681       -9.11169650691146
H           33.15034719258834        2.06694838670743       -9.83874670752605
H           34.06700776850481        0.40063292910047       -8.18037776201569
H           35.04004253636143        1.65455889328465       -7.46274310126591
H           35.27725489142484        0.70737650675125      -10.37747724239474
H           36.40650230990669        0.31439523424375       -9.08492982056729
H           36.25749565080217        1.97335242908215       -9.65595927742353
H           23.02932840641186        8.67918951675520       -7.65280223782338
H           20.79221496727041        8.82180116766329       -6.61834209790109
H           21.01707726230867        3.29489492871123        2.24625678850138
H           19.30270090605217        2.63681027673609        3.90619182194865
