142
 energy: -24.283732716986 gnorm: 0.000994328499 xtb: 6.5.0 (97a52f5)
C            0.67887647140524       -0.66534267137363        0.27425755762885
C            2.05922957302319       -0.88129321874821       -0.32682642344849
C            2.64023017212150        0.38992748319430       -0.94803085215802
C            4.03130254793201        0.18355926991550       -1.54813432833259
C            4.61314739653134        1.45901120221644       -2.15739780235835
C            6.01106514563592        1.26111962457667       -2.74401449853581
C            6.59944405788632        2.54685331826815       -3.32454829489334
C            8.00765338371044        2.36338786986612       -3.88998996107964
C            8.60616902252645        3.66454053540030       -4.42105633584410
C           10.02403557519023        3.50214345875115       -4.95138249051248
O           10.57708905727245        4.74825950264022       -5.36991231177452
C           11.96390589921250        4.73762054198175       -5.59206977145888
C           12.72677110999002        3.55046226164956       -5.76605740865926
C           14.07516078531259        3.58733238696143       -5.96262841423203
C           14.72643652443269        4.83539803920443       -5.99209407691003
C           16.06921377779792        5.20577490892826       -6.14902761117944
C           16.11756457685881        6.58819655064209       -6.07869616086057
C           17.32074406906341        7.39890389748339       -6.19714238730596
C           17.57995389760008        8.59227019491562       -5.51589376158373
C           17.04859957905313        9.49216827490255       -4.50437645229300
O           15.99516442072001        9.40247590633868       -3.88940140193971
N           18.03250771259969       10.49190861348784       -4.36417028945554
C           17.88717368994469       11.60107671767486       -3.42682610424724
C           17.58616930955193       11.15167316666616       -1.99530060349964
O           18.71315048298916       10.55135761822002       -1.35768364166774
C           19.12460127365856        9.33145520750402       -1.96393486268945
C           20.14264654796947        8.59254495459079       -1.12259399790696
O           17.05100746236909       12.23796269170190       -1.24265749740632
C           16.91010735682571       11.88409806947532        0.11979877172402
C           16.34958630770107       13.01905970013543        0.95199834404239
C           19.10842551255121       10.27388548261695       -5.21778026377416
C           20.29223188019004       11.09568597546276       -5.31737115921898
C           21.36724237645486       10.83373213086986       -6.14718694541003
C           22.30570256149087       11.85313545839841       -5.93843199469207
C           23.57544232078959       12.11473524868579       -6.48734513769634
C           24.26426724157276       13.21301093091064       -6.06572887875016
C           23.73430761532185       14.09824462396687       -5.08714497456805
O           24.40083696801214       15.23843978979279       -4.61254544074395
C           25.69586370380091       15.45903242041591       -5.16445593814838
C           26.36321475871573       16.68942169373931       -4.56573245910930
C           27.75308135658278       16.95907708515578       -5.13928771189910
C           28.42653480549561       18.18072578847651       -4.51461630772816
C           29.81150742435484       18.46612144382339       -5.09465364801516
C           30.48957398711638       19.67513232597984       -4.45005157606904
C           31.86689552011206       19.97672958205519       -5.04056584795358
C           32.54856218629126       21.17672781721391       -4.38258481750825
C           33.92025113965310       21.49146195536577       -4.98197757868106
C           34.59523608262385       22.68079588632447       -4.31622528570696
C           22.48413062400426       13.83862260591777       -4.55297009191595
C           21.75504272712532       12.71929248536522       -4.96685399665602
O           20.51483234327888       12.25250835500289       -4.58929552931289
C           18.83583791846191        9.09531466441278       -5.91871051152853
C           19.38175736665848        8.18239867378234       -6.90888078000209
O           20.44753310344913        8.26858123365875       -7.50363358037528
N           18.40429253036854        7.17710598479359       -7.04598974890745
C           18.54307780002415        6.11390890142217       -8.03734222241039
C           17.36840885238414        6.03195270644804       -9.02113555816425
O           17.42662465556055        7.03712773130178      -10.03142569031351
C           17.22978124387156        8.36055763495556       -9.55167623187736
C           15.81581993757729        8.64676758760468       -9.08824722168005
O           17.27721452626651        4.71688267676600       -9.56307476554587
C           16.27291134611606        4.65427414084895      -10.55728571441416
C           16.13220214698030        3.26441006442252      -11.14188507940089
O           14.84494144761681        7.10625031901720       -5.89085534948697
C           13.98906770932526        6.02993542366214       -5.83173663522713
C           12.60539664716937        5.96297007589093       -5.63978980532963
H            0.27495404209654       -1.58009168469956        0.71272371396184
H           -0.03038148339737       -0.32148214202666       -0.48025468218803
H            0.70507858838965        0.09144692638716        1.05986968915334
H            2.02056119794010       -1.67155753126770       -1.08777003310087
H            2.74948543114232       -1.25801668788941        0.43920128600283
H            2.68051123561010        1.18268692259115       -0.19154827814788
H            1.95885656790254        0.76717896819383       -1.71988623451715
H            3.99166953570131       -0.60393861978333       -2.30994376873130
H            4.71104872469166       -0.19861064061622       -0.77734597278109
H            4.64355477418670        2.24750877984409       -1.39605726695028
H            3.93810451048615        1.83832100529573       -2.93371969435945
H            5.98124682027204        0.48550609288194       -3.51827944863888
H            6.68110268932310        0.86742451444742       -1.97056646872074
H            6.61487401108893        3.32324180198291       -2.55034553389657
H            5.93618759472362        2.93677221898628       -4.10576732485189
H            7.99279437624685        1.60958521446615       -4.68595818973115
H            8.66262064885888        1.94824206770804       -3.11483375026388
H            8.60770586668432        4.42248160847281       -3.62967720447194
H            7.96868442257981        4.07824835338613       -5.21031928294983
H           10.04107892159657        2.81408906190282       -5.80382882970902
H           10.67280312476372        3.08443978493749       -4.17312830973572
H           12.22507534675955        2.60037601746211       -5.75142280985126
H           14.64807806367148        2.68608030007378       -6.09255495296741
H           16.90039533199427        4.53670675657925       -6.27467220299587
H           17.07992427571970       12.24378580555691       -3.78597659840352
H           18.79809928661724       12.20116905651386       -3.42666933692350
H           16.79293699088274       10.38913146745113       -2.01877429507319
H           19.54191749162790        9.57707727716417       -2.94639109475172
H           18.23341551803798        8.71482293310099       -2.13566486565116
H           21.02531547661468        9.21077567579334       -0.95609428856628
H           20.46671079847819        7.66173049570208       -1.59187370556292
H           19.73031101779563        8.34997846589780       -0.14281144447009
H           17.90166980278829       11.57990481859008        0.48039119571728
H           16.26554996993468       10.99720488847295        0.17345568086929
H           16.99518748404283       13.89566039509913        0.89181553444928
H           16.24713926350273       12.74717071143208        2.00414772330489
H           15.36754367150659       13.31775308180822        0.58421292600770
H           21.45513343467314        9.99902723689080       -6.81732538136201
H           23.98298677743882       11.44772792097039       -7.22652571692709
H           25.23271239708541       13.41252926057830       -6.48605056247228
H           25.59094319293672       15.57148700783406       -6.24936193214789
H           26.30477044796130       14.56756362912785       -4.97696788120461
H           26.42362496491410       16.57127507463682       -3.47813781384660
H           25.71780304091157       17.56087402766664       -4.72209814839536
H           27.68420809383700       17.09083668349875       -6.22551787526309
H           28.38777713161644       16.07632827177170       -4.99810120469916
H           28.50421851496723       18.04226364805501       -3.42974962936918
H           27.78536794106341       19.06059491222404       -4.64427329961899
H           29.73227316121856       18.62155309389113       -6.17698788095513
H           30.44871272236605       17.58156640018872       -4.97888596797073
H           30.58017034113679       19.51256894332148       -3.36956139647886
H           29.84506137978249       20.55612418988833       -4.55272222433933
H           31.77417935257682       20.15149073314485       -6.11895737442533
H           32.50864797824045       19.09257450539285       -4.94870146555908
H           32.65032940632658       20.99665195786907       -3.30575325060264
H           31.90093195518106       22.05779415028953       -4.46406061800155
H           33.81141133713981       21.67308740981662       -6.05921129677608
H           34.56111635712916       20.60329194247762       -4.90688278479876
H           33.98667123800993       23.58198569576366       -4.40876870979268
H           35.57142132725685       22.89642639700939       -4.75558082068288
H           34.74678654579460       22.50261210207195       -3.25023115377229
H           22.07273965033744       14.49910129418851       -3.81443214767387
H           18.65619691347766        5.16394686877561       -7.51095954842464
H           19.46735859743288        6.27215768735456       -8.59684808976527
H           16.42809134868175        6.18282509181464       -8.47643981004783
H           17.50291361609344        9.02603338333637      -10.38109178419005
H           17.96270478349451        8.55158227651474       -8.76149189735697
H           15.09700342293524        8.40092307201464       -9.87015716012772
H           15.67905307042730        9.69767899267430       -8.82712899421994
H           15.55031887119956        8.06084458064978       -8.20914692235142
H           16.53683765865999        5.38684483942980      -11.33152516084859
H           15.33002144001099        4.99118955662300      -10.10751483312460
H           17.07364403910867        2.93517284177347      -11.58256721580953
H           15.36303482853127        3.21863903540506      -11.91502858521052
H           15.87199048409511        2.54476898674734      -10.36508494237134
H           12.04059330285731        6.86601914634017       -5.51124285138755
