107
 energy: -17.834793744035 gnorm: 0.000493642701 xtb: 6.5.0 (97a52f5)
C            0.85069820056687        0.06712073955248        1.13347785213862
C            2.36251337086393        0.07240918154970        0.96738815730959
C            2.79791100447387        0.27726500985967       -0.48444490056198
C            4.31668094285667        0.28624573681984       -0.66124060768920
C            4.74546162490096        0.48536388536316       -2.11501149955020
C            6.26325676609329        0.50075574669216       -2.29860730819894
C            6.68225041034042        0.69971657885166       -3.75519703536159
C            8.19833110202144        0.72897108183356       -3.94890278407427
C            8.60383029682543        0.93028089212042       -5.40856871758905
C           10.11757559273559        0.97147625066570       -5.61706370531278
C           10.49348503521306        1.16559124366787       -7.05641993101484
C           10.58767545233821        0.15250257080430       -7.95725010192384
S           10.96004464783891        0.74700475329040       -9.53564777709526
C           10.97387125923661        2.40009046163591       -8.98486402184632
C           11.22513862026300        3.51592516892665       -9.83084043179054
N           11.28022031804341        4.73205993998841       -9.41885071137756
C           11.51144506146052        5.82019853974260      -10.23247513631625
S           12.06993154180122        7.34130569453092       -9.61043833094378
C           12.08208693163014        8.11214540633308      -11.16478524478375
N           12.48398087125693        9.41807159919336      -11.34068036712139
C           12.21182397300458       10.13304510887345      -12.37373414257293
C           12.69579434828196       11.45739997424798      -12.56407542444880
C           13.50384975782897       12.14220470487060      -11.70021859943046
C           13.85495760876258       13.44690028878922      -12.14958787820797
C           14.78285899979980       14.34816148069166      -11.38953481121082
C           16.24720608044675       13.92905418198030      -11.52131639298135
C           17.20154078215951       14.81266662463343      -10.71932163123126
C           18.65851537587834       14.36280796822363      -10.82593471573541
C           19.61502475650071       15.22777934354699      -10.00542515526337
C           21.06684628927636       14.75687979578997      -10.09185440384399
C           22.02515776850939       15.61465639577686       -9.26566276149090
C           23.47329575082072       15.12975970159457       -9.33766545889144
C           24.43413590718313       15.98428993208587       -8.50950929085302
C           25.87108856355633       15.49127303699471       -8.57998971968739
C           13.31372586754469       13.74723790832858      -13.35945009642592
S           12.34766479290349       12.44560017691677      -13.95813723474246
C           11.65874560594578        7.21495870308604      -12.12266265080806
C           11.56641813369828        7.52210982972969      -13.58545899486809
O           12.46387962868613        7.18495888269950      -14.33705236854332
O           10.44012543028598        8.19913255876207      -13.97956384102871
C           10.46449017028143        8.43423598937850      -15.37125620614320
C            9.26879457968897        9.23765127911092      -15.84108444360526
C           11.34640639970808        5.91905147765238      -11.59869594870770
C           10.84457846562426        4.81636948086815      -12.47846331365129
O           11.58623262990005        3.90583970217596      -12.80456033004475
O            9.53035108361182        4.91605933766426      -12.85618332878118
C            9.16955071396540        3.82896585365532      -13.68023377947142
C            7.71613954465318        3.88377497579845      -14.10534307071331
C           10.70759148754003        2.44565559423762       -7.64464658680719
H            0.55288839528238       -0.08185905073561        2.17343715011372
H            0.39198128345782       -0.72788826090068        0.54325639757469
H            0.41402074463142        1.00939303743860        0.79847809012216
H            2.78699105221880       -0.86749699107222        1.34363023339538
H            2.80838629233030        0.85633043819339        1.59334964676171
H            2.37811421822067        1.21602953718192       -0.86506262904447
H            2.35932243350677       -0.50647753963724       -1.11354720959794
H            4.73792955290591       -0.65081948020908       -0.27815385062641
H            4.75573840082103        1.07328290239794       -0.03662668082806
H            4.31987413787132        1.42031647682226       -2.49855263434827
H            4.30797796521391       -0.30353169171479       -2.73841686765981
H            6.69088091499734       -0.43360710911417       -1.91601883324758
H            6.70159196178083        1.29112629804542       -1.67774908905840
H            6.24576721915268        1.62971245230288       -4.13862921888636
H            6.24818962183556       -0.09473329130763       -4.37399684847950
H            8.63740239602011       -0.20102431601120       -3.56871607759560
H            8.63385102397068        1.52412481926544       -3.33224105998680
H            8.15831864243513        1.85631582428569       -5.79112627753197
H            8.17224058505138        0.13235963955963       -6.02453272599105
H           10.57206428848558        0.04664290286620       -5.24502652498677
H           10.55564583574561        1.77586090126641       -5.01590842248148
H           10.44165950781923       -0.88487411082706       -7.72777347807947
H           11.40522551564500        3.31453491508690      -10.87019279722779
H           11.57746456861838        9.72183402509850      -13.13614076443303
H           13.85343010317136       11.72627605378323      -10.76922635126449
H           14.49110011621503       14.35461071871490      -10.33346600863107
H           14.65624089234821       15.38007209837904      -11.73492538564266
H           16.53647004193858       13.93365423725573      -12.57894849400510
H           16.35720781120279       12.88589527485768      -11.20178557457621
H           16.89622244000689       14.82091731194159       -9.66619879717013
H           17.10971385462340       15.85342245925037      -11.05179888903692
H           18.96915717765051       14.36450120617382      -11.87754330269407
H           18.74348478369495       13.31758136725619      -10.50535224280411
H           19.29395759502605       15.23766858620107       -8.95699048395960
H           19.54455574441704       16.27102394159904      -10.33547042926392
H           21.38975185098982       14.74844584348974      -11.13970085598725
H           21.13392231675112       13.71253024284907       -9.76441046893903
H           21.69476727425767       15.63194126106041       -8.22022959232659
H           21.96803562821100       16.65726041207565       -9.60037093776848
H           23.80396112031749       15.11205718448445      -10.38298677645537
H           23.52845324669506       14.08673112372261       -9.00384942428430
H           24.09297679633348       16.00494194989429       -7.46623894116564
H           24.37536095286175       17.02684383368939       -8.84829042221793
H           25.95470179605614       14.46687139683216       -8.21335347971521
H           26.54635572379864       16.10965952818599       -7.98500179376920
H           26.23977938756557       15.49651234563747       -9.60703573855876
H           13.46436910473511       14.66994135533851      -13.88484859165049
H           10.50994396040726        7.45577980248674      -15.86829894916384
H           11.40606779025254        8.95012931205117      -15.60394985630915
H            8.33917080407460        8.71969101335434      -15.60397651859314
H            9.29027589356518        9.41610597215175      -16.91765879342485
H            9.23330772937893       10.20529054311188      -15.33979555607490
H            9.38696875064385        2.90754957758527      -13.12304270351360
H            9.84118614395759        3.83944548814913      -14.54949436068074
H            7.05980491240158        3.88291253917155      -13.23469243640481
H            7.43964244730079        3.03755849494619      -14.73685938097798
H            7.51118645892727        4.79915443736787      -14.66100114635836
H           10.65760324543588        3.36751998900443       -7.08830166106586
