150
 energy: -26.244147873747 gnorm: 0.000835061531 xtb: 6.5.0 (97a52f5)
C            0.44441817118255       -1.01791505491240       -1.95227739779183
C            1.93424911464282       -0.86748367816973       -1.68721813040961
C            2.73624219298610       -0.58776638873916       -2.95891760580943
C            4.23630585168036       -0.45382014093646       -2.70159067530420
C            5.04436189758363       -0.22900106921919       -3.97880606250073
C            6.53870006607823       -0.06300964376596       -3.71061937678205
C            7.35638295615255        0.15992088189339       -4.98173430513626
C            8.85120076113316        0.30684262954779       -4.70022171576197
C            9.70149185540089        0.36941674661907       -5.97192587232192
C           11.19656542777701        0.17982042212528       -5.70362332656066
N           11.89885547115485       -0.40994374422152       -6.85471460012049
C           12.26223567034338       -1.74993506547812       -7.08051806824817
C           11.83858716434417       -2.91529235171368       -6.29244639484623
C           10.65726759610533       -2.91654714807267       -5.55830703560644
C           10.11656003067088       -4.08841384060761       -5.03676745256685
C            8.73380084996430       -4.08859556917822       -4.50575269334864
N            8.43868822375727       -4.03886555553404       -3.21626780949423
C            7.07871298029579       -4.04497161054444       -3.14036649794231
C            6.23110945868275       -4.02609619918702       -2.02026593316836
C            4.87618050271960       -4.07973331142899       -2.21228303984305
C            4.30524446773966       -4.14503399519698       -3.50204780214519
C            2.82956936524792       -4.26262794029556       -3.66374636240389
C            5.12450648197144       -4.15882077243291       -4.60734663320916
C            6.51286451037188       -4.10632980154469       -4.43277017226840
N            7.57904774234819       -4.12862623192029       -5.31201532897698
C            7.45284851946039       -4.19102070843270       -6.78715213275513
C            8.51560323954643       -3.37222533344858       -7.49942653625201
C            8.31836743302170       -3.12539931708603       -8.99111772577855
C            9.49697353350232       -2.32546711754266       -9.55124646064670
C            9.42143392729333       -2.03476274864535      -11.04661618525123
C           10.63367346099263       -1.23682267288967      -11.52728941815334
C           10.61840955099032       -0.93783229858476      -13.02454794296217
C           11.84746753137743       -0.14823393154059      -13.47597624511632
C           11.85935253899470        0.14567358538131      -14.97633590717584
C           13.09267673443529        0.92199657199580      -15.41188918898267
C           10.83740698380616       -5.27049891672879       -5.16918053909809
C           12.04512606401839       -5.29511552987140       -5.85885551754301
C           12.76012113918802       -6.56480159634328       -6.07060647314922
N           13.13562870706691       -7.38693194722443       -5.10299028431576
C           13.70280642888413       -8.46122239553333       -5.72167821514879
C           14.24996041796926       -9.63771897926940       -5.18373659418596
C           14.72065996864336      -10.60050183340570       -6.03673417910881
C           14.67383211321014      -10.44625017396621       -7.43988161416215
C           15.16842645859725      -11.53351503094808       -8.32964569385160
C           14.13298124910190       -9.30208572877912       -7.98022287970939
C           13.65698470088418       -8.30111178153627       -7.12503463394005
N           13.06782119025660       -7.06841670966495       -7.34341170913692
C           12.51337846005176       -6.59206106021957       -8.62039377299089
C           11.04005395297166       -6.94223071173232       -8.75544651005024
C           10.41923075107817       -6.45502861028505      -10.06237423725500
C            8.93618880288684       -6.80554606647715      -10.17523544556182
C            8.29591332159484       -6.30063015897512      -11.46800119408941
C            6.79008073676731       -6.55513769073762      -11.52485449522207
C            6.13920899830737       -6.00946488734647      -12.79563482538917
C            4.62986512712413       -6.24830528829515      -12.84278000376304
C            3.97521581314471       -5.70152000783148      -14.11244373380593
C            2.47303342325013       -5.93702240925569      -14.14878182307143
C           12.52046456480595       -4.11862646655249       -6.43000343017099
N           12.96214492663058       -1.88104013783825       -8.19763463610237
C           13.04765041714282       -0.63861378577883       -8.74851573398484
C           13.64613365470186       -0.21410599732727       -9.94571785208570
C           13.55453988447864        1.10545740626134      -10.29965825683736
C           12.87484550388220        2.04937260119628       -9.49896973641811
C           12.81276612404580        3.47630083907793       -9.92053302110328
C           12.30016034541992        1.64851646983401       -8.31420431813346
C           12.37914407676161        0.30294333614780       -7.93727504503436
H           -0.11717195312451       -1.22071881075021       -1.03744742082676
H            0.24760787531632       -1.83689045081570       -2.64673433314624
H            0.02964130407629       -0.11197595840216       -2.39837344940879
H            2.32563950275466       -1.77227564888392       -1.20338333587465
H            2.11067033828482       -0.06124848406682       -0.96270631467338
H            2.36103325248267        0.32399146753085       -3.43978820604366
H            2.55893692032536       -1.38547444299622       -3.68967536573602
H            4.60434775191933       -1.35023330397923       -2.18839807932269
H            4.41764575996693        0.36923322633242       -1.99955445390462
H            4.66367692290507        0.65403665156295       -4.50648997391676
H            4.88400896054813       -1.06623998088881       -4.66932651843080
H            6.91529805609333       -0.94821789588628       -3.18316844174140
H            6.69970401285357        0.77185549976318       -3.01765236726946
H            6.98835422265965        1.04336182341272       -5.51737820142168
H            7.19238165231814       -0.68004848566566       -5.66801585484473
H            9.17661651850569       -0.53973032858677       -4.08380764320566
H            9.03659595929832        1.19186530072468       -4.07954770741731
H            9.52065880031050        1.30766036626283       -6.51084902682895
H            9.36906466264229       -0.40688138319874       -6.66930795944743
H           11.36190803895163       -0.47120583417391       -4.84032013434659
H           11.67320774630012        1.12990237165283       -5.44299684088497
H           10.07842449029352       -2.02050403521687       -5.48080068299079
H            6.65667822586003       -3.98134174407991       -1.03383304588225
H            4.21828347754267       -4.07950494457820       -1.36006505416357
H            2.30251874404142       -3.86458875907339       -2.79578391662761
H            2.53630090762562       -5.30660423227635       -3.78279292626946
H            2.48541324733793       -3.71572539475141       -4.54267680354586
H            4.70666975330096       -4.22774349551766       -5.59459879178399
H            6.45978496221286       -3.82259505525078       -7.05929694397808
H            7.48802757820511       -5.23847873180449       -7.10011113049818
H            9.48820999088270       -3.85614291919158       -7.35930560299195
H            8.59064370634829       -2.40325269825653       -6.99627868603953
H            7.37697935525357       -2.59209189519714       -9.16881359818148
H            8.21915349677497       -4.07741394658291       -9.52229390218089
H           10.43153995768917       -2.85771977259260       -9.33370711765237
H            9.58641058778738       -1.37900636110269       -9.00372569911630
H            8.49803038962024       -1.48931661422121      -11.27602690571637
H            9.34917847691957       -2.97438889637985      -11.60675539067214
H           11.55121399568406       -1.78180758548118      -11.27346186950789
H           10.70052935673733       -0.29688413501926      -10.96536795369250
H            9.70670176030993       -0.38562584223814      -13.28309321986619
H           10.55417675012872       -1.87679828560438      -13.58790925416137
H           12.75691244308036       -0.69722144982610      -13.20228593042277
H           11.90555250004908        0.79305944773426      -12.91573915428284
H           10.94917984423204        0.69824513764067      -15.24517864478068
H           11.79190013811528       -0.79951220560543      -15.53147076767508
H           13.15876622594619        1.88076982839430      -14.89405864103231
H           13.09165624978350        1.12717499883624      -16.48488773555908
H           14.00686375195507        0.37040572309498      -15.18410479037455
H           10.42970855358531       -6.18641347438618       -4.78262545818788
H           14.28282524750791       -9.76756843954928       -4.11677837335285
H           15.13602519777227      -11.50897226740046       -5.63513750896776
H           15.93434824386582      -12.13205796004391       -7.83440080288916
H           15.60659985937337      -11.12586147579627       -9.24187554320149
H           14.35376452931426      -12.19995246573575       -8.61650355745822
H           14.07534879949405       -9.17361343778317       -9.04526619921939
H           13.09114852090990       -7.02701350510541       -9.44068909156837
H           12.65798997829188       -5.51081653061570       -8.68887452282750
H           10.48818034720792       -6.52189978891918       -7.90600659210408
H           10.91472564578627       -8.02787242939680       -8.66450044228101
H           10.96613997799864       -6.87802066718640      -10.91368839319226
H           10.55072905694222       -5.36971935279121      -10.14947115290579
H            8.39755085403692       -6.39613943125035       -9.31225507682206
H            8.80497099845037       -7.89185596923637      -10.09780695051208
H            8.78566408512751       -6.76702412888040      -12.33163940696447
H            8.48886950891864       -5.22752700499263      -11.58061816502850
H            6.30907271650293       -6.10812306839404      -10.64604889071205
H            6.59367573962300       -7.63099482569416      -11.44023902321362
H            6.61263245172655       -6.46143260779802      -13.67582775513962
H            6.34457904843621       -4.93534622242457      -12.88181784174579
H            4.15825888288080       -5.79609319174473      -11.96161752243084
H            4.42407102304688       -7.32221996460302      -12.75539606550170
H            4.45097606450448       -6.15782306825048      -14.99083117729629
H            4.19171372883709       -4.62829661680973      -14.19851373148033
H            2.23905359879405       -7.00194805130285      -14.09448755023936
H            2.01793787188696       -5.54674202071617      -15.06202904955818
H            1.97736341451369       -5.45559410611408      -13.30356702585864
H           13.41828807295443       -4.14509456536083       -7.01932854093209
H           14.15688151763908       -0.92855629565366      -10.56618226294336
H           14.00911542961357        1.44333883251034      -11.21521151110463
H           12.80957001415908        3.56583444296540      -11.00786213191104
H           13.67147070847622        4.03078962227576       -9.53943929108929
H           11.90805629639093        3.95835933662276       -9.54711037201140
H           11.78730775251044        2.35370451942691       -7.68663278876448
