128
 energy: -24.939184432752 gnorm: 0.000722925466 xtb: 6.5.0 (97a52f5)
C            0.47017947884076        1.02465335401079       -1.32150497371998
C            1.89030838759969        0.84930955805306       -0.80649472661226
C            2.76364491143022        2.08235568246571       -1.04451919805135
C            4.18850103599140        1.91904727720091       -0.51486378086073
C            5.05523569247981        3.15865462969233       -0.73758449351049
C            6.47027914187549        3.00672336368308       -0.17972095675369
C            7.33065252139108        4.25394788084120       -0.38229588172959
C            8.73219118241144        4.11500144820004        0.21099438566793
C            9.58577455333723        5.37009066524815        0.03199590378592
C           10.96084845282617        5.24872072033142        0.66381910109055
N           11.74364706609169        6.48488102862547        0.49891357409639
N           11.37341665696193        7.63694892947417        1.06525525040560
N           12.25765012449534        8.47554259558987        0.71447391728753
C           13.17060037172726        7.81622402605082       -0.06921244969658
C           14.35510015736601        8.44427142035294       -0.64893468771712
C           15.25738276933852        7.69835988831642       -1.40194697488218
C           16.37859968413488        8.28641722039650       -1.93794536129186
C           16.63756088123212        9.64046331157766       -1.74011249891673
C           17.79358755283477       10.22956821538530       -2.28333963682408
C           18.82010843311756       10.68910054153307       -2.76340963365970
C           20.02551429626049       11.12555865382683       -3.33223300637976
C           20.32689182321879       12.46675843582775       -3.41534462622044
C           21.51801889260262       12.90100038538154       -3.98114657984701
C           22.43786838513542       12.00462182945999       -4.47747828281761
C           23.63956735356007       12.43933348793609       -5.05543858436957
C           24.70545274855208       12.71742265077621       -5.58644303417614
C           25.93875377346329       12.94963107430073       -6.22171353160953
C           26.57306988073002       14.18756236507271       -6.14779756417369
C           27.77874239520349       14.39786798690327       -6.77566913322492
C           28.39214147521446       13.37713178083277       -7.49773506802608
C           29.66797637907990       13.59562576768020       -8.17395809017292
N           30.34796921590095       14.78748012208032       -8.17963975159129
N           31.39628310425566       14.63012745327471       -8.87601138380287
N           31.35523519263172       13.35703456161079       -9.28286338971660
C           32.37345249207786       12.78532725174150      -10.17944043184057
C           31.76144921180747       12.36445464897870      -11.50337992169426
C           32.76700768444562       11.71943441993542      -12.45632195372706
C           32.13015783195965       11.24965963755716      -13.76389707366078
C           33.12808360001044       10.58786791815649      -14.71397756205982
C           32.47901849467948       10.08257018780362      -16.00257418339953
C           33.47273440173713        9.41322008902514      -16.95208134824425
C           32.81689520495240        8.88705028453530      -18.22917274907000
C           33.80845833684067        8.21488840398458      -19.18028510315992
C           33.14751145145114        7.68671840097578      -20.44406647669782
N           30.30781657751666       12.67566883675707       -8.87843304799481
C           27.75907965168021       12.13955132069326       -7.57104592877989
C           26.55387902709199       11.93011747002335       -6.94428228281773
C           22.16742764534877       10.60564337609125       -4.41103613037873
N           23.07684596961669        9.74496753121677       -4.90103905948546
C           22.76010547669028        8.46580590840353       -4.80727929376124
C           23.70314305151319        7.48603829790636       -5.32457183076209
C           24.90094795864816        7.92338105721310       -5.89310339296033
C           25.81503113019653        7.03401235977103       -6.39533315573497
C           25.55179857909686        5.67563647045019       -6.34226680679360
C           24.38087048103184        5.21985034893464       -5.78751460686088
C           23.42964594302108        6.10481901482149       -5.26529961398034
C           22.17790804216487        5.64706053266245       -4.66716026631298
C           21.84335081631131        4.29076144440405       -4.57198545174154
C           20.66073187314299        3.88513613101214       -4.00346221494642
C           19.76874411250675        4.82123661646892       -3.50814644052267
C           20.07036627836017        6.15601901885504       -3.58750567880252
C           21.26492106425736        6.59466180762951       -4.16198621649885
C           21.54291776090687        8.02141564770722       -4.22794385310840
N           20.64067047573345        8.85607194208208       -3.74301393548345
C           20.95015134656342       10.16168444394333       -3.83291688389345
C           15.73296146331616       10.38672089894741       -0.98896359633300
C           14.61135906528821        9.79875259491287       -0.45270255606186
N           12.84625577164813        6.54118737370756       -0.21435542685682
H           -0.14262841283310        0.13816083700815       -1.14499896747001
H            0.46119148829803        1.22178937623103       -2.39483174286228
H           -0.02408142953649        1.86751525949588       -0.83542914562220
H            2.35892000263100       -0.02368470042344       -1.27935255936294
H            1.87632865576446        0.61733744094993        0.26657379389562
H            2.29680625419064        2.95819821812515       -0.57818167637328
H            2.79274272662775        2.31232709556939       -2.11632675908933
H            4.66065326194667        1.04904659122480       -0.98687257331077
H            4.15713226487524        1.68070939597127        0.55513967383619
H            4.57249963587894        4.03063785189345       -0.28012664312306
H            5.10304591358050        3.38854036191101       -1.80875714044000
H            6.95933335216336        2.14132309324216       -0.64282604263286
H            6.41888336621907        2.76644669094971        0.88904692083314
H            6.82889117336360        5.12159520366033        0.06264206982394
H            7.40281768914036        4.48383563114742       -1.45202371084241
H            9.24119185944020        3.25480612018410       -0.23984814599557
H            8.65567169591734        3.87383533540971        1.27794989514302
H            9.06585292888946        6.23482699580287        0.46047653273159
H            9.69090504941687        5.60145603437414       -1.03444355206498
H           11.52135516882898        4.42365200192129        0.21947585205697
H           10.88042403584036        5.03413493377592        1.73163670258373
H           15.06555379086093        6.65107096763668       -1.55427924788147
H           17.07395059017379        7.70391823209274       -2.51695166975124
H           19.62004159339906       13.18337477790234       -3.03352932424816
H           21.73408694686619       13.95406522649544       -4.03833950166426
H           26.10443018525538       14.98109199139087       -5.59128018137719
H           28.26383832439556       15.35631472133216       -6.71690990973837
H           32.83365811065307       11.93262585294202       -9.67562091534055
H           33.16177641676614       13.52591055347483      -10.33022354055090
H           31.29544240489971       13.23272059444932      -11.98392026515618
H           30.93542441966712       11.66937377694589      -11.31291948612684
H           33.25124052139676       10.87073423073264      -11.95875937851251
H           33.57800265714399       12.42528981179484      -12.67137885703569
H           31.64920519514980       12.09769132345908      -14.26587754737894
H           31.31532393271752       10.54970514432418      -13.54316590185321
H           33.62541698549202        9.75501488119026      -14.20252350849765
H           33.93118695026958       11.29404189477112      -14.95657086771373
H           31.98184856831427       10.91445657149880      -16.51573231869921
H           31.67514622324932        9.37830992401640      -15.75663362443084
H           33.97963872029874        8.59064834754482      -16.43345927215184
H           34.26923100360429       10.12114425323774      -17.21083629643826
H           32.30891233565254        9.70891446869356      -18.74768978338515
H           32.02048399806694        8.17969869733356      -17.96869169754943
H           34.31997236967158        7.39917306114361      -18.65284404830546
H           34.60253937783948        8.92753414394698      -19.43879404842628
H           32.37954178223722        6.94813424709629      -20.20829236841659
H           33.86599722768924        7.21066511617662      -21.11471153446941
H           32.66142996147831        8.48996918390542      -21.00021658028510
H           28.22825777684814       11.34862936545679       -8.12937583351470
H           26.06838880014807       10.97157118673700       -7.00640100431640
H           25.09416560914604        8.98091521453847       -5.92859305868004
H           26.73495814427875        7.38985343151407       -6.82972082322071
H           26.26924276117690        4.97543524857715       -6.73815709484735
H           24.19856851665446        4.16127035200791       -5.75839357025990
H           22.52059897689849        3.54589222672521       -4.94773330430572
H           20.42448784124646        2.83534468160410       -3.94130643911866
H           18.84161662971856        4.50092885268646       -3.06160186764352
H           19.38614976995105        6.89215856484723       -3.20405878351733
H           15.92600126528238       11.43379820687120       -0.83048674136042
H           13.91681439136438       10.37909090472905        0.12827703668017
