94
 energy: -19.012479874340 gnorm: 0.000411147601 xtb: 6.5.0 (97a52f5)
C            2.24364169862378        3.54827794641220       -0.75906621841048
C            3.45186862066186        2.62769903524435       -0.83298289308107
C            4.77966328657773        3.37894804499130       -0.71747860988594
C            5.99518153941091        2.45380644439584       -0.77598800316432
C            7.32564288786339        3.19485244233080       -0.63680278329321
C            8.52962211027530        2.25368314910175       -0.65904011760275
C            9.86574816589908        2.96996133246853       -0.46139051108843
C           11.04360479241211        1.99918368446553       -0.38245335843945
C           12.38149098358554        2.68711303856770       -0.08433877449100
C           12.36710293328226        3.49418470285925        1.17530671191651
C           12.28802290262006        2.91660051581829        2.46040433435250
C           12.30535924131336        1.50973990773941        2.66085585326497
C           12.21418645853637        0.97320531863538        3.90597593395956
C           12.10696484972270        1.80021646270723        5.03521563871855
C           12.10357515215839        3.15140141554351        4.89878916952024
C           12.19936890159764        3.75614733557120        3.61841920933705
C           12.21720452584595        5.14864818974620        3.48504732733108
C           12.31828249438636        5.71812035010831        2.22771793879856
C           12.39683158880929        4.88451336588354        1.07190508476514
O           12.51582807990742        5.66222195987747       -0.06377660937452
C           12.55266460801017        6.97457272484253        0.36329197828253
C           12.74070291577336        8.14044463635114       -0.44718620879343
C           12.83796230077413        9.38711049134777        0.18255368907586
C           12.58631262662278        9.50521836484427        1.60166477681328
C           12.50633033567867       10.76647146519612        2.21840532228013
C           12.26926326214380       10.88929356473722        3.55840642356047
C           12.08760291084740        9.75451499717865        4.34099976392763
C           12.13757594915854        8.51152089224332        3.77227536345333
C           12.38185650299334        8.35015522535951        2.40012620724035
C           12.40721161166113        7.06832445126745        1.75188908938856
C           13.21636805089916       10.54157083423378       -0.64225769817805
C           12.48618839680082       10.77328990996591       -1.81243727497621
C           12.78750409531506       11.93407554995682       -2.59486760389307
O           12.15513924758329       12.34074419088598       -3.75235683724790
C           12.78152782001902       13.50580224302586       -4.15157974448368
C           12.53317086265919       14.30908548454529       -5.25169258702952
C           13.30250874778919       15.45710030350111       -5.46545514748458
C           13.08063923020591       16.30426031577326       -6.58202923601143
C           13.83897682353916       17.41551468087084       -6.77456037872060
C           14.86073700999233       17.75009842107951       -5.86944785134586
C           15.10788943787102       16.96775743012506       -4.78593275199700
C           14.34262710146036       15.79731239539971       -4.54415108020345
C           14.58772328299034       14.97956251278752       -3.43437713417800
C           13.82292868825872       13.84068481172731       -3.23164885944865
C           13.81538374876115       12.81165746214248       -2.23189188935674
C           14.62394883539084       12.55120269700578       -1.07320751606539
C           15.70751128723686       13.35944939431061       -0.69671616188447
C           16.48351932108864       13.04617908307716        0.38507959952470
C           16.21440016042436       11.90393330856394        1.13017082722826
C           15.16420555332054       11.09794339358528        0.79240476721556
C           14.32681161158043       11.40118315955424       -0.29617136831767
O           11.44382110697187        9.92258722423166       -2.20212258253467
C           11.87811578124213        8.62629772756538       -2.59561562895071
O           12.90136650316819        8.00016595882744       -1.83096838639180
H            1.30373462948192        2.99848196129252       -0.84225815553701
H            2.26286516357863        4.28937691628694       -1.55981033291224
H            2.22172037462000        4.09487000763235        0.18520611964798
H            3.43735300225244        2.05979696989986       -1.77243622019096
H            3.39583555818901        1.86850030543248       -0.04182516177526
H            4.79774606425900        3.95066107324444        0.21807052991041
H            4.84926047142635        4.13062955431739       -1.51272775081488
H            5.98449125245898        1.88918485316757       -1.71601141294395
H            5.91506954488934        1.69534571900319        0.01213529063473
H            7.32808675260931        3.77169281463702        0.29584384582602
H            7.42204740503652        3.94052378766059       -1.43486617585239
H            8.54567327131121        1.69397938602238       -1.60181124181954
H            8.40764203646970        1.49249196350479        0.12105984938561
H            9.82544364945859        3.56965169141321        0.45576228579628
H           10.02985198603768        3.69421851831388       -1.26803514831124
H           11.10990119027001        1.42720747783759       -1.31640502957805
H           10.83092838104212        1.25466001490877        0.39256189145178
H           12.63611313239818        3.35433697791560       -0.91623795239341
H           13.19685724965565        1.95571392021735       -0.03882429324775
H           12.41438524725836        0.85943657989192        1.81158948097872
H           12.22886984488286       -0.09700368890358        4.03288405876048
H           12.03362888734425        1.35643960846471        6.01458376110188
H           12.02873373938523        3.78374669700800        5.76665469272570
H           12.17681359042851        5.75568827961018        4.36701558747764
H           12.62955487910068       11.64870792000345        1.61519245511658
H           12.21864520288831       11.86640355195189        4.01039983559328
H           11.89699148130792        9.85779450375961        5.39680609736646
H           11.96599824958918        7.64823643698333        4.38474642448846
H           11.74939082240940       14.04272321490613       -5.93524491294839
H           12.29923155395849       16.05206792757555       -7.27784615990083
H           13.65874981703395       18.04856006962648       -7.62796634585338
H           15.45157243202228       18.63514443312201       -6.04006423998786
H           15.89202765396814       17.22725915763687       -4.09576883978928
H           15.36698570512314       15.25385585290868       -2.75248597538220
H           15.94120829679567       14.23394137388044       -1.27101498696828
H           17.31261376251190       13.67916343453486        0.65646647752597
H           16.83710245610520       11.65465928282443        1.97379308134595
H           14.97280142466563       10.20716420708060        1.36399128459660
H           12.23191830582974        8.69156205411656       -3.62973128403892
H           11.00332859030521        7.96787524232058       -2.58769463304429
