90
 energy: -18.451758184982 gnorm: 0.000623914639 xtb: 6.5.0 (97a52f5)
C            3.61317042507283        0.91998922869165       -2.66130957281961
C            4.92431513908699        0.36517060190101       -2.12852194769430
C            5.57227020532218       -0.64716887824113       -3.07352949783286
C            6.89527455552611       -1.19968523098053       -2.54312758976237
C            7.55351519236725       -2.19500718336758       -3.49895746149983
C            8.90765970796078       -2.69593163250613       -2.99844130283112
C            9.62419914704208       -3.60336034954097       -4.00108901856083
C           11.05883580223783       -3.94271232292855       -3.57449474765048
C           11.93949909955085       -4.44919974324447       -4.72538353138479
C           12.28611132825436       -3.44073477881893       -5.78951264364837
C           12.97330088926574       -3.83742951452113       -6.95901577867537
C           13.39193469490368       -5.18127740543633       -7.16423552517342
C           14.04104865844040       -5.55388609752560       -8.29793959995157
C           14.31845952337680       -4.61595363590774       -9.30534452441902
C           13.94313307385768       -3.31976433613842       -9.15742670217570
C           13.26600195795034       -2.88428380712197       -7.98806521105011
C           12.88108995660507       -1.54786108906998       -7.84402614835084
C           12.22810011336068       -1.14340218183544       -6.69458913109325
C           11.93597563353148       -2.09406983919381       -5.66526146997612
O           11.25596748803557       -1.46069897673799       -4.64274298227203
C           11.06356236256273       -0.16019552728480       -5.03635522818634
C           10.28725987069649        0.84860905625363       -4.37878342195323
O            9.59341380111461        0.76162247145962       -3.19926715667237
C            8.91577814441507        1.94792892661210       -3.08468756033546
C            8.05272885077964        2.38379810376824       -2.02661863141674
O            7.74888685805557        1.72397082103660       -0.85731475513256
C            6.87586969113167        2.54472511561050       -0.16780972262018
C            6.25942987577993        2.34181836021696        1.05392219369842
C            5.38856027458047        3.30933798290471        1.56390926100537
C            4.73088147852869        3.13525734189182        2.80948540103125
C            3.88943844378094        4.08722608549298        3.29047857693039
C            3.65247441831046        5.26702412565628        2.56337895332937
C            4.26026332562479        5.47467369621777        1.36599600196948
C            5.14590372753084        4.50785205587458        0.82228878511434
C            5.77570112194971        4.70587823881591       -0.41275588250451
C            6.63130392398690        3.73849541408433       -0.91685056525257
C            7.40191135813015        3.61844628185909       -2.12307508148706
C            7.51400302435182        4.43177782644439       -3.31754116206241
C            6.76755127288954        5.60460718497725       -3.50243584510467
C            6.78037496612520        6.27490224651202       -4.69599636211531
C            7.51622695955618        5.78146571414198       -5.76420650774563
C            8.26933061292153        4.64819854119999       -5.61296232083919
C            8.34177928809484        3.98115625465671       -4.38282321442882
C            9.13929140513505        2.77865956024985       -4.19699895207533
C           10.11326234945416        2.10199207564399       -4.99054580924887
C           10.90541013638011        2.45925231867819       -6.15934448191311
C           11.06210109483577        3.78657006437416       -6.57994631436071
C           11.81386292941820        4.09834422739194       -7.68117954265996
C           12.46762886058214        3.09617381321983       -8.38510447818866
C           12.39709063337986        1.79738889140923       -7.95785018331354
C           11.64249235275116        1.44395698674600       -6.83020686493163
C           11.66488807510071        0.10826445640505       -6.26860606748158
H            3.16326051071377        1.63929965716508       -1.97373645519340
H            2.88564559951183        0.12329208772055       -2.82582288854881
H            3.75836687068074        1.42644954498175       -3.61715562549782
H            4.76810592079147       -0.10152467709963       -1.14713756846379
H            5.62973594953282        1.18431911122292       -1.94345078076512
H            5.73587989265637       -0.18132637622457       -4.05282564690084
H            4.87671677313330       -1.47359191514179       -3.26271951317237
H            6.73615558470968       -1.67253274904496       -1.56676090292018
H            7.58516491436946       -0.36989588190522       -2.34752057553131
H            7.68214710545987       -1.72215925906560       -4.48022525030522
H            6.88328628691706       -3.04469960622418       -3.67539282227694
H            8.78956625165685       -3.21366637491979       -2.03937010504249
H            9.54540203862962       -1.82965671824563       -2.78205127881155
H            9.65296818591371       -3.09719517009435       -4.97323023177972
H            9.04660879798715       -4.51896692544741       -4.17523669681802
H           11.03232644030663       -4.67022510841430       -2.75320911951503
H           11.52830476357298       -3.04842733152189       -3.14807649957754
H           11.43400459234748       -5.29796731342935       -5.19927665347271
H           12.87734269527936       -4.84877589022139       -4.32060562993824
H           13.19326122272121       -5.91545253631924       -6.40380809846689
H           14.34769888155673       -6.57865176745020       -8.43043813561145
H           14.83355296284002       -4.93044192128757      -10.19828685573133
H           14.15762375504027       -2.60110308319162       -9.92965430008768
H           13.07610177477029       -0.85984292981022       -8.64232294678022
H            6.45050748293303        1.43724599166629        1.59978053630751
H            4.90924992719984        2.23312473029223        3.36882455239402
H            3.39612503020762        3.94059904184070        4.23742681059914
H            2.98141732716243        6.01010077792788        2.96212622780927
H            4.07519998745269        6.37877542614165        0.81193398184585
H            5.58880415327145        5.61472515393329       -0.94806176611414
H            6.15834734957313        5.97673287001597       -2.70275833888286
H            6.19440619862083        7.17136243336818       -4.81808498517340
H            7.48412536099646        6.28525168320871       -6.71660214463627
H            8.75707108937911        4.22197532924089       -6.47036792717618
H           10.64275444507816        4.57790508346791       -5.98487316052898
H           11.91327773837119        5.12529470427748       -7.99316010864314
H           13.05891311662012        3.34789403706840       -9.25049428237758
H           12.95987894362945        1.04479433213631       -8.47490349037180
