109
 energy: -23.815504670545 gnorm: 0.000257441092 xtb: 6.5.0 (97a52f5)
C            1.01860926825001        0.52861567018195        0.44335982234432
C            0.25707912299997        1.40944217873742       -0.22976227405035
C           -1.19804477522578        1.45891484757596       -0.14547024905399
C           -1.96245509236764        1.77320427424622       -1.27349825494878
C           -3.33431134212091        1.78452517866602       -1.21389552744869
C           -3.99536515839002        1.51303178626790       -0.01784856884979
C           -5.45268625076285        1.50775814311442        0.05364383833652
N           -6.26616020218690        1.30887099306385       -0.99173507069544
N           -7.49105174164047        1.33026816575464       -0.56368508336014
C           -7.47103824322399        1.56674957478079        0.75452475854061
C           -8.65859138824625        1.69569243087425        1.59283145581895
C           -9.86771747124287        1.11138071786024        1.22157000188750
C          -10.98062176891851        1.24124948675427        2.01542035177839
C          -10.93590937569601        1.98848796481782        3.19655524197321
C          -12.13176056255710        2.14604219582615        4.01651408465848
C          -12.44252004406005        3.27085742251667        4.68519893070479
C          -13.63020765629930        3.43397603833927        5.51431558429513
C          -14.26866422671359        4.67533447747881        5.59506207288663
C          -15.39415590714511        4.84163392045787        6.36398460446354
C          -15.91228339260354        3.78127628054117        7.10778009392493
C          -17.09952443638844        3.95421456292029        7.94070816462331
N          -17.36435072864214        3.23837336368872        9.03140411807949
C          -18.53976780498919        3.69184589615322        9.51039458922707
C          -19.18805670369833        3.14713414715869       10.71418727919251
C          -20.57168481474152        3.00116373942763       10.79907125895110
C          -21.15602736459406        2.49192666145968       11.93720231054361
C          -20.37164258417146        2.11325956574214       13.00863686482590
C          -18.99856414000344        2.23863926395234       12.93601875090515
C          -18.41144693519881        2.74590408337799       11.79824642039359
C          -19.02777508299217        4.72664303577381        8.67630909147529
C          -20.24833084276500        5.52893410644792        8.81371449531902
C          -20.99182400102311        5.86966769336127        7.68523320506424
C          -22.14108642063627        6.61972178438766        7.79963633619934
C          -22.56589696043814        7.05080010321554        9.04074723761477
C          -21.83484298034175        6.73330826409791       10.16834586691018
C          -20.68592896405431        5.98256766665313       10.05792011915728
N          -18.09965121496984        4.87605365585182        7.69036970316135
C          -15.26578032852068        2.54706665015804        7.04636340303394
C          -14.15618039546892        2.37212595363814        6.25640079036631
C           -9.71993065427715        2.57435994574840        3.56193675724611
C           -8.60071279126598        2.41845566987557        2.78170836916777
O           -6.18525083618513        1.68309512133717        1.18834170336412
C           -3.23895180573788        1.22854301094180        1.11618945028690
C           -1.86784802392753        1.18859019753819        1.05186055874284
C            2.47280565241504        0.46926998680135        0.36865142012603
C            3.13301204753573       -0.75883206684843        0.47321693644909
C            4.50176064267346       -0.83369465310265        0.39375324003933
C            5.27053721090027        0.31938671844243        0.23476436229451
C            6.72771123998989        0.24874140340252        0.16505351507377
N            7.54801795277028        1.23105260129453        0.53155905408410
C            8.80103879311985        0.78429832261131        0.31437633730394
C           10.00384564879384        1.58696214415073        0.58640184570748
C           11.13469251291484        1.51415462133361       -0.22530563752824
C           12.24983429286321        2.27253658936177        0.05300642201883
C           12.25556103977144        3.12268933026594        1.14099586093964
C           11.13853731064875        3.21809679718435        1.94687628504596
C           10.02152085841356        2.46173994673945        1.66978763851969
C            8.75438633655043       -0.52789678486218       -0.21575103585373
C            9.85973460815545       -1.42152411902538       -0.58009813905144
C            9.77420190471815       -2.20752701134926       -1.72786095748849
C           10.80459979905896       -3.04948472033363       -2.08252576931929
C           11.93572796866704       -3.12955112488831       -1.29461177127058
C           12.03211729467075       -2.36761609179862       -0.14702629242180
C           11.00445236059616       -1.52371253336230        0.21014180522028
N            7.43255618802174       -0.84589517930149       -0.30108857897037
C            4.61687857824493        1.54861758211383        0.15181385834801
C            3.24646497093915        1.62218351546035        0.20385406409214
H            0.52679169087012       -0.22158163413466        1.03805691788850
H            0.73640926121211        2.08363917576199       -0.91812530512194
H           -1.45979400447363        1.98452255292392       -2.20158519025427
H           -3.91683896539112        2.00807311702187       -2.09045510586172
H           -9.91343746421218        0.54958367455046        0.30505013588358
H          -11.91005398706037        0.78397575267571        1.72260801724620
H          -12.82845926124060        1.32604419304998        4.03809428809749
H          -11.80453725983331        4.12937974142790        4.56558410036148
H          -13.87326817574300        5.50208199706600        5.03037261070190
H          -15.87732991756921        5.80139256066988        6.41502247535320
H          -21.18065061397549        3.28966979877599        9.96011625253089
H          -22.22747379199016        2.38979738114725       11.99207628905123
H          -20.83047174843130        1.71807183311338       13.90014303698358
H          -18.38561775556653        1.94068267414415       13.77090256876206
H          -17.34192669710846        2.84659255403348       11.73509339076448
H          -20.66166208559760        5.52586342257644        6.72043403985021
H          -22.71085394710843        6.86870406101138        6.91934136750709
H          -23.46655175683552        7.63606669764290        9.12892415658295
H          -22.16434952668091        7.07312150414216       11.13652166463914
H          -20.11091682975872        5.73938411929510       10.93448875156063
H          -18.13906660818548        5.53941153356957        6.91703543469342
H          -15.65776190474154        1.72848025467430        7.62421022331423
H          -13.66578476715242        1.41491675862633        6.22207746813613
H           -9.66355490319862        3.13677143527560        4.47767379442772
H           -7.66484033125726        2.86458609873708        3.07125096185843
H           -3.74991914473389        1.02490794036231        2.04148343933547
H           -1.29411575491685        0.96415379323950        1.93419133486043
H            2.54989994227603       -1.65437452281554        0.60253601797236
H            4.99683773990272       -1.78542189858072        0.47311742301561
H           11.12561862298331        0.85848573641355       -1.07837567762901
H           13.11974924357194        2.20189566651525       -0.57922427411716
H           13.13022068863892        3.71313275813228        1.35969615139276
H           11.14098434485663        3.88398397705470        2.79429386843369
H            9.14749120818337        2.53154188500577        2.29363875384187
H            8.89399153470350       -2.13742821191921       -2.34301593606628
H           10.72870073727237       -3.64526973829306       -2.97741196936439
H           12.74195259082875       -3.78771521014887       -1.57441023786228
H           12.91326767699601       -2.43332883858891        0.46996293238617
H           11.07385047929959       -0.93394950212899        1.10767838406087
H            7.04182970829074       -1.72240123378406       -0.64565838151988
H            5.20652475491366        2.44119639338094        0.03646414407705
H            2.75641478869913        2.57819858339598        0.14238456210588
