141
 energy: -24.913192834965 gnorm: 0.000594334446 xtb: 6.5.0 (97a52f5)
C            3.02771705137270       -2.54062373445164       -2.02205920358947
C            4.48696672605629       -2.46896062809956       -1.59984213339069
C            4.65789072564268       -2.29446920137168       -0.09044816009595
C            6.12164397562113       -2.22105495002448        0.34203283841127
C            6.28862830969468       -2.03514946103495        1.84943946024643
C            7.74946685588827       -1.89383503275061        2.27348292641308
C            7.92050182503230       -1.75938853538791        3.78579317464974
C            9.38733600355254       -1.71514598545999        4.21864444509843
C            9.57598181693320       -1.83988100176071        5.73105681435598
N           10.90771678251719       -2.36137634196318        6.07858751296723
C           11.30180582892714       -3.68341558259444        6.35286309674932
C           10.43902333304420       -4.86972750808419        6.29090121844044
C            9.33579142630959       -4.92615215152396        5.44999685064556
C            8.56174372582687       -6.07258275390782        5.32708307780592
C            7.49306018600785       -6.11340598815592        4.30521498756080
N            6.23501332572004       -5.74241395580104        4.48964603835926
C            5.64047299889165       -5.81242640175042        3.26353605740315
C            4.32810165119360       -5.50613567963928        2.86786012192223
C            3.98780788677645       -5.63025013373929        1.54678284036010
C            4.91886833121207       -6.04181227263011        0.56745976295527
C            4.49843452066832       -6.19355029544308       -0.85276704750204
C            6.20824271978157       -6.34337126722599        0.94038418816170
C            6.57144446272244       -6.23340295214021        2.28676673628299
N            7.75239382663521       -6.44812819359766        2.96960034955347
C            9.08260610220652       -6.70340995476147        2.39950752598423
C            9.78650606808143       -5.40639485266466        2.02040889340755
C           11.29952319383546       -5.55314421433274        1.87871476745972
C           12.00935562784521       -4.21214278807130        1.70150800139496
C           13.53084941649492       -4.34113816401777        1.65924087656389
C           14.23880172883706       -2.99007207930320        1.56714835810878
C           15.76226031808931       -3.11200655362295        1.58015664117952
C           16.47099207787998       -1.75870949942005        1.50482334338635
C           17.98638417643818       -1.88531874145307        1.52420409681140
C            8.89958460852401       -7.19101448964414        6.07996427281299
C           10.00591704017983       -7.17254907051901        6.92296000021580
C           10.40576810793168       -8.38953699824897        7.64863302997481
N            9.59491164419328       -9.10761860740645        8.41011023920133
C           10.32221474440778      -10.18337228147493        8.82473719087095
C            9.95027704038468      -11.28154090962182        9.61750173723111
C           10.86468818445611      -12.27559354176483        9.84447532978544
C           12.16946789762172      -12.23017655695208        9.30583682277755
C           13.12082999686653      -13.34900354773765        9.55390868692434
C           12.54321319754473      -11.16531681819411        8.51833799450062
C           11.62636973674059      -10.13389225866291        8.28257259815846
N           11.68138924538348       -8.96459384320498        7.54469864176309
C           12.70481884851612       -8.61827374349216        6.54591732518182
C           12.27922709544197       -9.02101143859012        5.14236612169903
C           13.26007089045149       -8.57435381321720        4.06074111643672
C           12.80066505367298       -8.95798753718402        2.65458227337375
C           13.73594519122168       -8.45078933223498        1.55798670997440
C           13.22916375218449       -8.76858389656155        0.15150460630662
C           14.12853985311797       -8.20857841250763       -0.95005527047615
C           13.60775879922132       -8.50974826605684       -2.35629066211921
C           14.50276149744662       -7.94723867961665       -3.44961745712656
C           10.76617263634915       -6.00992485390250        7.01509080272501
N           12.58832283141641       -3.75437173877874        6.65860040637063
C           13.07747669051932       -2.48653320222292        6.55954952261237
C           14.38039167676031       -1.99598882398620        6.74383011041928
C           14.61672576335613       -0.65906877956483        6.56286004493523
C           13.59189717345084        0.23907198931735        6.19133451260717
C           13.88919414214325        1.68951340659597        6.02977584934206
C           12.30950491980013       -0.22820544483902        6.01585656607832
C           12.04924415773953       -1.59187610111470        6.19324844495062
H            2.91828005022778       -2.67705418747132       -3.10036911215744
H            2.49337479735558       -1.62829312433931       -1.75040454228762
H            2.51435690854445       -3.36996592404768       -1.53219748097018
H            4.99067844361144       -1.64309682676262       -2.11975747598177
H            5.02067600961261       -3.37226054075235       -1.92317739060720
H            4.15974113291785       -3.11747383515890        0.43532038098959
H            4.13154014790137       -1.38945797068315        0.23679263590771
H            6.62028069099085       -1.39976647966011       -0.18712855051820
H            6.64833161812927       -3.12860177396512        0.02180753397196
H            5.83169414317573       -2.88199714008695        2.37615893422353
H            5.72328702966985       -1.15497052222695        2.17912768936450
H            8.20422200871474       -1.03212278235615        1.76987878322189
H            8.31472839946553       -2.76262713122951        1.91609642681852
H            7.41833081869465       -2.60227143863502        4.27573654761874
H            7.39522224950558       -0.86787561292316        4.14898510820131
H            9.86923819062550       -0.80239431604311        3.84739345818285
H            9.93482610921736       -2.52651230675410        3.72649117005477
H            8.82561836892922       -2.50360536143707        6.16971147501893
H            9.43003640022974       -0.87459760549477        6.22542703399965
H            9.09235800649499       -4.08818587792817        4.83152129707029
H            3.61507056129270       -5.17999120640515        3.60369757080008
H            2.98180820660316       -5.40733361231233        1.23474660239420
H            3.62143950960897       -5.58428227956636       -1.07372625913724
H            4.24879325741649       -7.23227051641516       -1.07351858528159
H            5.29531743869648       -5.88819728676780       -1.53233821200394
H            6.93011254156408       -6.66500155971489        0.21257401522510
H            8.99139599828567       -7.37496709680814        1.54094558688031
H            9.66520007833472       -7.24514974502779        3.15059170926647
H            9.57463945211409       -4.65914967529028        2.79140113511690
H            9.35149660821117       -4.99232294336015        1.10278785548983
H           11.53511460622992       -6.21934932091256        1.04085337660278
H           11.69844086684003       -6.05419157213954        2.76894216056681
H           11.72780918673899       -3.54076905606854        2.52160755743843
H           11.64963724553338       -3.71695573828333        0.79138170276612
H           13.82675572222584       -4.97444523126835        0.81423311783440
H           13.87777329089728       -4.87467761909878        2.55265583286092
H           13.91525729078561       -2.34918293781670        2.39641614757491
H           13.91625503347783       -2.46506819503367        0.65966352969294
H           16.08856407873049       -3.74716680263538        0.74749790676480
H           16.08065270940340       -3.64371885966726        2.48529155087653
H           16.13393103752662       -1.12656682385044        2.33725078279764
H           16.14711724244028       -1.22987329331674        0.59845093707793
H           18.32941101456193       -2.38011416221649        2.43483305716238
H           18.48040899094548       -0.91233401916348        1.47295986896332
H           18.34369236401000       -2.47967762296044        0.68110679611979
H            8.32788555379837       -8.09450922126625        5.97390633396212
H            8.95644318627280      -11.32841314782261       10.02549609025524
H           10.58825852358043      -13.12437747904520       10.44636561401004
H           12.89416973557064      -13.86033521900870       10.49053856027357
H           14.14747691148309      -12.98519379109882        9.61642061730005
H           13.07277382602532      -14.08389794731345        8.74911275822111
H           13.52624698046589      -11.12179347897382        8.08724730375640
H           13.64768312362815       -9.09998264991940        6.81947643060240
H           12.89134957693163       -7.54260296330196        6.59429517663659
H           11.28817069847327       -8.60136288549758        4.93234297391685
H           12.14049099784365      -10.10789195319720        5.09891887662537
H           14.25141869973061       -8.99988694373708        4.25785930805787
H           13.39912793011534       -7.48793568451180        4.11905784595129
H           11.78994955707813       -8.56939384679678        2.48154548862624
H           12.69969001712056      -10.04776170261689        2.58153199433626
H           14.73764690066564       -8.87524664111704        1.69775070882528
H           13.87060126705094       -7.36792454436510        1.66320713318667
H           12.21258217804103       -8.37548794744349        0.02908346520482
H           13.12869807977492       -9.85431750957324        0.03196615832440
H           15.14319198782295       -8.60976871533222       -0.83763577293222
H           14.23560517667250       -7.12446047101960       -0.82223533668654
H           12.58980633559648       -8.11027070160007       -2.45845560919854
H           13.49919292840294       -9.59584180989778       -2.47766786746392
H           14.59375695471437       -6.86260225728928       -3.36599978657985
H           14.11966488611906       -8.16888325388180       -4.44839658534967
H           15.51119788666258       -8.36038769755393       -3.38576450116314
H           11.63109897210325       -5.99369812832455        7.65163847641766
H           15.16769270361529       -2.67400950062515        7.02093651152799
H           15.61081969876775       -0.27121329495668        6.70574958174288
H           14.93819742640923        1.85273534455542        5.77867434120219
H           13.67520109739807        2.23354890192419        6.95083308416915
H           13.28668241407849        2.12740510553537        5.23257493693356
H           11.51440650397435        0.44088441675224        5.74313000991981
