67
 energy: -12.543393917145 gnorm: 0.000655944335 xtb: 6.5.0 (97a52f5)
C            0.70552931849055       -0.25098864070607       -0.28131283271461
C            2.22299387860408       -0.19110009249772       -0.17668313059489
C            2.80048295131771        1.13541798877854       -0.67655264090651
C            4.32297929805821        1.22050894865736       -0.54542874158263
C            4.88981839526978        2.54833564828697       -1.05196680964529
C            6.40743484202636        2.66202607228759       -0.89091745706015
C            6.95180994289976        4.00721285011629       -1.37408362115934
C            8.45185731424135        4.17088503487740       -1.15898751763564
N            8.92559548264395        5.51035164339944       -1.56929764678474
C            8.28197662538489        6.66462911748317       -1.03582814478284
C            7.82693423099050        6.68770245454586        0.28099678283331
C            7.19586465551220        7.79834301611668        0.79379943510794
C            7.00159928404897        8.92992047560480        0.01163742277655
C            6.34039426314305       10.05608298964198        0.53148566812090
C            5.74178293779673       11.01313771286897        0.99802892718106
C            5.02772254491386       12.09566271351908        1.54353974354539
C            3.92399811149019       11.87650642666101        2.35872329415253
C            3.22138653335362       12.93227702303485        2.89610717115573
C            2.01412711238959       12.66052616674470        3.78395869986993
F            1.08021010188917       12.03038483428643        3.05116730270195
F            2.40406325168735       11.88126463161653        4.80711070780035
F            1.53471256013833       13.82868405063158        4.24454968611144
C            3.61517650846663       14.22527663855628        2.62168068576111
C            4.70695713760248       14.46571092031444        1.81475033290458
C            5.13232993011249       15.90073664788948        1.53420774064084
F            4.06416226132945       16.58216320612675        1.08605020345744
F            5.58007457905356       16.44216707141154        2.67963496364366
F            6.10625285806038       15.89928163798852        0.60767820269253
C            5.40764438770192       13.40596635436704        1.28130609554816
C            7.46637236013944        8.91379175832578       -1.30287126641721
C            8.09296941036863        7.80514132908842       -1.82605587888245
S            8.60716443429373        7.84961525200470       -3.51602633728315
C            9.93744871065164        6.68748538015137       -3.46587980512237
C           10.96030263951392        6.82793785256832       -4.37261304259312
C           12.02121882501875        5.92618291423359       -4.40986557712905
C           13.08520659749603        6.11039675837587       -5.38419344435840
O           13.14088969743257        7.00333426937322       -6.18839831927063
C           12.03191474133916        4.87015214999903       -3.50431426067168
C           11.01585838669544        4.72562907983354       -2.58959140453732
C            9.95014299224055        5.62680231828530       -2.54820968780197
H            0.30853865934885       -1.20360306004995        0.07482580338076
H            0.37669243019775       -0.12291228201529       -1.31365779529642
H            0.23875891662595        0.54018456326302        0.30739929298804
H            2.67250374208330       -1.01776628626866       -0.74162600336305
H            2.53375801248391       -0.35220952578164        0.86352817827564
H            2.33940565009663        1.96481605871980       -0.12753513387280
H            2.51289598320840        1.28966250393097       -1.72311172189032
H            4.78785642826139        0.38997116938530       -1.08916072313849
H            4.60946332816340        1.07508371006444        0.50267430543643
H            4.40435443494950        3.37678406072463       -0.52289544490888
H            4.62109680566901        2.68483455701061       -2.10592681403071
H            6.90125934144258        1.84607253953268       -1.43103856809206
H            6.67532053139805        2.51560476483006        0.16191690181351
H            6.41883163190276        4.81773075519522       -0.86502300289948
H            6.72206965988737        4.14421093162601       -2.43719797185688
H            8.98617784065401        3.41043062367126       -1.73351296270657
H            8.72072499736411        4.00936395848080       -0.11218387300054
H            7.98976600010813        5.83001727668527        0.90853518583878
H            6.84464017192016        7.80257448511596        1.81167052121493
H            3.61066350958945       10.87069294646739        2.57671636304093
H            3.06478460284132       15.05123310974401        3.03904478646752
H            6.25838071670314       13.60164537126674        0.65277437335906
H            7.31980313762688        9.77972478679192       -1.92518438052377
H           10.94523933598952        7.64418650646421       -5.07442262579398
H           13.89808240675191        5.39655104449759       -5.39870510252689
H           12.85041265731150        4.17111613492997       -3.51951464661177
H           11.06163897366275        3.93367669085137       -1.86324444037755
