64
 energy: -12.119303541532 gnorm: 0.000860797538 xtb: 6.5.0 (97a52f5)
C            1.03680880204023        0.20731565214788       -0.14740197779048
C            2.54756174582689        0.02754673828172       -0.13462395091102
C            3.09493099215316       -0.29258626172017        1.25783133937597
C            4.61146332162448       -0.49030937590106        1.27694473741922
C            5.15343002303616       -0.81681819742130        2.66917682487518
C            6.66489419829174       -1.04760188132252        2.68558396900797
C            7.19877401715554       -1.40259730257673        4.07332055265666
C            8.69856848484361       -1.68323309876440        4.07926978296097
N            9.20096732929741       -2.12167353040510        5.39708599442228
C            9.65093132751060       -1.12829346079214        6.31373040843941
C            9.30182636649116        0.21344278178004        6.14935466915477
C            9.70617341170625        1.18028766693465        7.04309872666466
C           10.48355895417534        0.84944469452814        8.14415919373833
C           10.90651196438449        1.82860180456751        9.06130036979630
C           11.28302459472689        2.67653714423138        9.85646223562951
C           11.72825540720729        3.65383380195198       10.76821803042575
C           11.26888684104841        4.96373838829949       10.68592735024784
C           11.71007116798364        5.92011588654195       11.57400316208082
C           12.61568715112724        5.59014088883817       12.56112743605533
C           13.09955506271380        6.66650740694122       13.52988138539046
F           13.76577644733364        7.60221070191150       12.82776089419572
F           12.02657196545180        7.21299627759924       14.13159771868357
F           13.91185000320988        6.10799377568077       14.44666323758692
C           13.07826690775468        4.29301896480261       12.65315314023080
C           12.64035746456397        3.33273822946665       11.76756984858524
C           10.84435286359663       -0.48636999778601        8.31044438583894
C           10.44900704294164       -1.45922177991767        7.41816188372386
S           11.03108284487255       -3.09509024780734        7.73239905563377
C            9.89567705891218       -4.04353275270496        6.77264036637142
C            9.78517566178658       -5.37636274010572        7.09574669150991
C            8.96432497109784       -6.23598935063648        6.37105897764864
C            8.87764480716405       -7.64011046756190        6.74146165074091
O            9.47034926849866       -8.15832093285269        7.65215006940954
C            8.25504526783184       -5.71842325925549        5.29434232865297
C            8.35255960964859       -4.38567879951232        4.97124724492384
C            9.15529742006771       -3.50726040654492        5.70673953670560
H            0.66051975249099        0.43577862601260       -1.14646937869519
H            0.73116406759837        1.02029377500528        0.51296888124747
H            0.52986582030701       -0.69576093210383        0.19634142060199
H            3.03823356746749        0.93155400894729       -0.51793633159666
H            2.83735513585828       -0.77091159187911       -0.82985161812712
H            2.60306496841848       -1.19177137069643        1.64711249857823
H            2.81959561303614        0.50806918256725        1.95423886234287
H            5.10601300224281        0.40847057175534        0.89048652868154
H            4.88565515286499       -1.29063735427835        0.57973001863104
H            4.64375341026195       -1.70483351674971        3.06088301768948
H            4.89629994604352       -0.00901898367782        3.36415093196644
H            7.18008786078484       -0.15656458022662        2.30847736559000
H            6.92045389133565       -1.84643163564335        1.97967444349485
H            6.65662737207311       -2.26997552241441        4.46423608604278
H            6.96222761721975       -0.59863890837204        4.77821840915600
H            9.26124592271209       -0.80132781535369        3.76149997720625
H            8.95091596251213       -2.45049057937967        3.34221218439425
H            8.69645315115315        0.50807002344693        5.31266174445637
H            9.42089271156032        2.20810858026079        6.89791777868653
H           10.56249285424730        5.22223301358329        9.91564672377804
H           11.35629843147699        6.93508616675510       11.51044287452526
H           13.78531506267835        4.04626394447380       13.42657493714603
H           13.00248395628313        2.32138803532598       11.83957080381299
H           11.45665900555361       -0.76406748527831        9.15114745158749
H           10.35456767062108       -5.77272010861121        7.91909835343477
H            8.23095687263961       -8.28072388594772        6.15716031731117
H            7.62403791454896       -6.37209148975395        4.71682742154193
H            7.78652253793735       -4.01763712870049        4.13588102644068
