61
 energy: -11.662462982403 gnorm: 0.000501414162 xtb: 6.5.0 (97a52f5)
C            1.00846055638609        0.38437589154458        0.12543012052250
C            2.50865861013176        0.14153743690488        0.18747758694182
C            3.05236386641054       -0.53338783309075       -1.07298707965126
C            4.55628039493366       -0.80226631390642       -1.01011419663875
C            5.09210723582724       -1.49564153703043       -2.26319333133786
C            6.58413837422331       -1.81736654930560       -2.17852208743634
C            7.10847280785771       -2.55180680218976       -3.41238567440887
C            8.57837210116940       -2.94220309947260       -3.28914558599084
N            9.05573963429431       -3.78640315922460       -4.40341364105707
C            9.61032995659267       -3.14697413895163       -5.54980815818133
C            9.37098442373319       -1.79581996454652       -5.80740335347524
C            9.87392238580593       -1.17440498588696       -6.92928309258120
C           10.64351020852053       -1.87724162272566       -7.84657188411063
C           11.16362366232898       -1.25418415253065       -8.99594813987786
C           11.62609455659673       -0.72174110270494       -9.99407502048520
C           12.16847972160207       -0.11609638562479      -11.14482438272711
C           12.13683815131281        1.26549508318562      -11.30409677691250
C           12.66798373489687        1.85697412112001      -12.42898908959293
C           13.24450203198874        1.08628182300120      -13.42368317822422
F           13.77241300043444        1.67197087939671      -14.53040878975547
C           13.27906645164369       -0.28916926347269      -13.27294742385398
C           12.74898007402759       -0.88396631415509      -12.14924091657396
C           10.89672609680059       -3.22364662008848       -7.58997210526680
C           10.40295641477552       -3.85211260553364       -6.46726119439795
S           10.85829439687187       -5.54323178581338       -6.24839047886992
C            9.61556209523096       -6.07781136178542       -5.11588088737324
C            9.39872117139896       -7.43437468982703       -5.03640538641937
C            8.48381407730121       -7.97476335083291       -4.13656949129301
C            8.28493161778326       -9.41486379548483       -4.07738773691525
O            8.85113293352349      -10.22908963680798       -4.76058816855443
C            7.78877926698391       -7.10726969401122       -3.30256760639026
C            7.99365887133018       -5.74991934904921       -3.38142710293022
C            8.89301641546440       -5.19405592178610       -4.29757161034544
H            0.63339610366407        0.86661539585663        1.03041441240545
H            0.46249310196635       -0.55233053950058        0.00223824195626
H            0.74679568061745        1.02279389994865       -0.71982491569436
H            2.75452700629732       -0.47407409879210        1.06246222193159
H            3.03865088478192        1.08916204514184        0.34879836644317
H            2.82480968949272        0.08474495330939       -1.94945884120042
H            2.51850141290811       -1.47598024047244       -1.24260147201095
H            4.78206449046968       -1.41352753766080       -0.12831095068949
H            5.09461441993518        0.13934568685916       -0.85001699063987
H            4.89735363210765       -0.87192296448441       -3.14353041960930
H            4.52882551543989       -2.41994445362214       -2.43801353187659
H            6.77581726222498       -2.42269371015199       -1.28463208469843
H            7.15548915583814       -0.89419954806653       -2.02601518570403
H            6.95185242925214       -1.93704722965924       -4.30516447326108
H            6.50135705111691       -3.44540480948372       -3.59237435878528
H            8.75452134998799       -3.48055062708314       -2.35358506085589
H            9.21235015358281       -2.05392055590547       -3.21944869999746
H            8.77406097290003       -1.22217683692603       -5.12311646378279
H            9.67299052374677       -0.13218526762198       -7.10960230809511
H           11.69000568226215        1.86920335343082      -10.53278079835290
H           12.64416164949355        2.92510905787457      -12.55246602140640
H           13.72760830552972       -0.88235554121505      -14.04994569718634
H           12.77835988952949       -1.95423030716113      -12.03623289508934
H           11.50328168862546       -3.78465191532995       -8.28013019468907
H            9.95766610978124       -8.09863455295570       -5.67283990324110
H            7.56922716502557       -9.79442385335341       -3.36130778291372
H            7.08492200453255       -7.50980531100965       -2.59449614658965
H            7.43981137069182       -5.10705769126310       -2.72279218221055
