54
 energy: -10.243195133315 gnorm: 0.000676276290 xtb: 6.5.0 (97a52f5)
C            1.15129057595104        0.00369974827539        0.50217876364446
C            2.65711592765399       -0.12279234272720        0.32894010045017
C            3.10256813831584        0.04237021407562       -1.12524399737159
C            4.61409307560711       -0.09636397479862       -1.30934499852723
C            5.05698662787368        0.06972737325609       -2.76312126189105
C            6.56468284589432       -0.09644312439069       -2.95222586279238
C            7.00509995566370        0.05875650890624       -4.40661134859995
C            8.50184776943107       -0.14801115610486       -4.60020327871788
O            8.89515375523235       -0.04391099686132       -5.95179866826992
C           10.21088776548284       -0.40158896888364       -6.09524397996125
O           10.91827687087582       -0.74579794395479       -5.16353534236075
C           10.78212545819606       -0.39544445687713       -7.46745627527337
C           11.85664550985038       -1.20258385953284       -7.72548127989596
C           12.45417713417390       -1.27179195831101       -8.98969657719758
C           13.56305457123691       -2.14069036254850       -9.18716030126012
C           14.16888798105448       -2.24011793967602      -10.38633729146630
C           13.71569109324902       -1.47811713767932      -11.50019781004822
C           14.35785848628943       -1.60230296663985      -12.74393554375216
C           13.93396560319509       -0.88751965743969      -13.82764376175995
C           12.85408357819204       -0.02431603434166      -13.70266521524126
C           12.21515291826822        0.11375357094594      -12.50145300838115
C           12.61360982987867       -0.60007966953474      -11.35795230592083
C           11.95516034675058       -0.48415522843491      -10.05938298234263
C           10.85051336539259        0.36508103991437       -9.79354901733561
C           10.25931725973775        1.19960053905351      -10.74197995078968
N            9.74932110936228        1.90011946804605      -11.51666425643353
C           10.26542974047463        0.41831858602523       -8.51124463340055
N            9.21577203661371        1.26781995936209       -8.27250624790719
H            0.84745754230533       -0.11478721069182        1.54433920684180
H            0.62256619105279       -0.75122895671612       -0.08212851544963
H            0.79605660376758        0.97894011800448        0.16508109117980
H            2.99926412639531       -1.09599696285186        0.70433869839263
H            3.17235795654217        0.61947517758512        0.95230148601586
H            2.77381397106077        1.01816982586109       -1.50223237362951
H            2.58712615053883       -0.69428290399702       -1.75298270902858
H            4.94130486637083       -1.07362195946937       -0.93508403919315
H            5.13129928430296        0.63804258623684       -0.68066261997860
H            4.74502752029413        1.05341684651348       -3.13358043886525
H            4.52647839560123       -0.65407110288893       -3.39316791741449
H            6.87451875854376       -1.07931230051235       -2.57818281822836
H            7.09765128658642        0.62864383336043       -2.32607803773970
H            6.72337974732819        1.04914485253259       -4.78020363372481
H            6.46166428227046       -0.65178576463221       -5.03916130567711
H            8.80463823194328       -1.14034452112121       -4.24252600637115
H            9.08012126908671        0.58705026870519       -4.02669052787906
H           12.24947662301605       -1.80372636762495       -6.92522169566622
H           13.91494267017900       -2.72571191509962       -8.35483588122414
H           15.00639207847787       -2.90336122555271      -10.51793646550362
H           15.19398655327019       -2.27436124104436      -12.83388766204258
H           14.43355222461157       -0.99284840399663      -14.77670499827521
H           12.51932360918961        0.53843345350875      -14.55895551728030
H           11.38607458534952        0.78953499720448      -12.44612112787942
H            8.73819428617309        1.76407527268833       -9.00297424053335
H            8.68793185581357        1.21707437489846       -7.41652561802540
