100
 energy: -18.535885757392 gnorm: 0.000669935664 xtb: 6.5.0 (97a52f5)
C            0.67412565638350        0.35470878315203       -0.49524335436143
C            1.96166450836879        0.72364340296345        0.22519815431769
C            2.69369196507945        1.89511193595354       -0.43158382155076
C            3.99027814950073        2.27003888121248        0.28634946648278
C            4.72808731009772        3.43212572465784       -0.37847358846836
C            6.02981478779954        3.79867912447486        0.33363074425036
C            6.77777511203074        4.94728347960897       -0.34003730485387
C            8.08523464355538        5.29640814585963        0.35971936279417
O            8.78763533661868        6.33482175968327       -0.29079068025277
C            9.99284021528564        6.56150719785168        0.32479744561323
O           10.38331723803236        5.95745950421958        1.30811612080824
C           10.84485920130479        7.61391535400477       -0.28868933890016
C           12.12059486524011        7.85916701665348        0.19704744166926
C           12.91839406539777        8.81882168172215       -0.38150202690542
C           12.46271665004832        9.56740322940498       -1.46547395362819
C           13.32673275007676       10.58866405256052       -2.10090315704808
C           14.66449047939327       10.31002514878563       -2.37278548756399
C           15.49490155584791       11.24496542330850       -2.98428021123712
C           16.86958088451743       10.97098161882577       -3.28048292593118
C           17.65357334124703       11.89094057638231       -3.88315344670466
C           17.14072009941956       13.17782893502403       -4.24873032861469
C           17.92549781230011       14.14068658108241       -4.87715142676877
C           17.41194372869761       15.38729063256629       -5.22857079214125
C           18.26656365621942       16.38734483852118       -5.90831578297392
C           19.15482686383783       16.00287036259190       -6.91146836742761
C           19.94645192988661       16.93165684001885       -7.54594556281291
C           19.87814113276313       18.27295858250913       -7.20089764591316
C           20.73585114534175       19.27258618547154       -7.88975831343271
O           21.50700468953469       18.91423133062724       -8.76241228136901
O           20.59126249063321       20.57302540861750       -7.47673675158831
C           21.45829734978462       21.42049246885289       -8.20099234986204
C           21.32581130308096       22.88247490066119       -7.79390920168699
C           22.27103707409104       23.80109922234680       -8.56537183597039
C           22.13661301022973       25.27100215525826       -8.16889162654537
C           23.08891384169747       26.18521370926844       -8.93965730301707
C           22.94554795849700       27.65866171411544       -8.55860579816519
C           23.90301733024088       28.57146204551303       -9.32687106288978
C           23.74874519576159       30.03723463274385       -8.95161555496041
C           18.99669942345817       18.66342590383432       -6.20365329096918
C           18.20285062075202       17.73751911657004       -5.56698528289637
C           16.07938587120087       15.67333117544313       -4.93834468453126
C           15.25280740194789       14.74419405368404       -4.31230663575073
C           13.87884071666329       15.01918254387669       -4.01339823031941
C           13.09376705528358       14.09715163198277       -3.41501304883292
C           13.60401068401328       12.80775848393222       -3.05467731103305
C           12.81329004466957       11.83721188051032       -2.44526646398586
C           14.96043584115995       12.50944296921245       -3.33111251463362
C           15.78718979619567       13.48015639498179       -3.96370479433507
C           11.17694353235073        9.32040525064101       -1.94402217551030
C           10.38332183626586        8.35749996050958       -1.36496967680033
H            0.16258492033143       -0.48352986761338       -0.01758529387268
H            0.86898736052924        0.07282647789691       -1.53128399233837
H           -0.02120379897832        1.19545072888040       -0.51575818407535
H            2.63245270807605       -0.14441870313680        0.26743712906850
H            1.75032351993928        0.97040932238667        1.27381641473798
H            2.03021556557993        2.76728510034776       -0.47283839542331
H            2.91039062378241        1.65224343682592       -1.47879873729972
H            4.65007732792072        1.39538376016459        0.33391787236811
H            3.77361848123250        2.52096924449820        1.33163075485061
H            4.07166690705044        4.30942419840077       -0.42167796829895
H            4.93957945818309        3.18218746771133       -1.42502366919165
H            6.68031273400949        2.91743993426195        0.38491754047722
H            5.81863912237089        4.05841575964295        1.37774921494306
H            6.14083224294187        5.83768121659526       -0.38292892263513
H            6.98689538044224        4.69457103510595       -1.38544147334801
H            8.74699337361601        4.42239719933948        0.40295411636898
H            7.90496362231599        5.61019263470151        1.39529294772505
H           12.47651138502220        7.28256195340498        1.03332823721537
H           13.90516203487763        9.00563387271487        0.00562087113109
H           15.06050589653663        9.34362586206825       -2.11893719406152
H           17.27047392124762       10.00887731833997       -3.01293232459028
H           18.68328497233086       11.66708972290066       -4.10143541139499
H           18.95576787350675       13.91873911894980       -5.08745246522411
H           19.20637726193328       14.96653262445770       -7.19717189810926
H           20.62935788717615       16.63080154338087       -8.32158330284856
H           21.23823039031236       21.29160476308705       -9.26811380487189
H           22.48344975969160       21.06304690339720       -8.04273734245324
H           21.50810637446433       22.97511962138113       -6.71748897623033
H           20.28852391229990       23.20473433664774       -7.93749361166473
H           22.09120108671314       23.69315228007165       -9.64171096694410
H           23.30653740256089       23.47297916718160       -8.41525564851083
H           22.31186332029176       25.37999522804806       -7.09188835337588
H           21.10257877043614       25.60115092905243       -8.32474811570770
H           22.92128862853570       26.06633797422571      -10.01685891768141
H           24.12353379816314       25.86115933261765       -8.77477320723846
H           23.10820844349623       27.77783409717759       -7.48058981529151
H           21.91192471442632       27.98370842909292       -8.72835656140689
H           23.74312523502872       28.43922545480286      -10.40507756258682
H           24.93579376131080       28.24286879200531       -9.15070412206395
H           22.73703188763709       30.39240474028833       -9.15561167318765
H           24.43973220780462       30.67704767384527       -9.50472896099895
H           23.93653051658196       30.19358401224557       -7.88788020169761
H           18.94541260589137       19.70464453661215       -5.93569202834222
H           17.53101330339668       18.04939638812846       -4.78625964015692
H           15.67453986212605       16.62896183203158       -5.21737900169902
H           13.47891063754821       15.98282188327246       -4.27710748237347
H           12.06335603848258       14.32001209286135       -3.19937966336038
H           11.78442179138763       12.05960315426243       -2.22806180875612
H           10.81514102041311        9.88250362852722       -2.78755154456213
H            9.39440559742852        8.16399983460571       -1.74326019776430
