88
 energy: -15.454687684332 gnorm: 0.000660648890 xtb: 6.5.0 (97a52f5)
C            1.66626609048099       -0.92956931590782       -0.42610368655874
C            3.03303726230290       -1.09020709129131        0.22115341967071
C            3.44208631903884        0.12795974000421        1.05051312161640
C            4.82033098364035       -0.02079675113364        1.69494312453268
C            5.23765631797107        1.20988512926762        2.49931820556270
C            6.62824689107767        1.07739315066005        3.11944219299508
C            7.06878698792572        2.33912749199805        3.85783950922793
C            8.48848504333181        2.24782544857846        4.40062746497941
O            8.94928038786926        3.49297721466321        4.94233090765270
C           10.35696068613861        3.53957665548900        5.11573708381288
C           10.87683577361216        3.44966855961429        6.40176365375260
C           12.24238883041333        3.42657982033695        6.66526742726283
C           12.67342495695370        3.33151524836421        8.04212413600581
C           13.94651311391967        3.29134387182652        8.47140922579644
C           14.37340486073327        3.20594877549004        9.85334111439168
C           13.49617451343836        3.17272164470161       10.93140792429138
C           13.99560400998959        3.09876622497581       12.20852441239024
N           15.28255555945163        3.05376038523468       12.51882833971488
C           16.11217720501658        3.08515717722809       11.48690007319180
C           15.72555303794439        3.15913152124591       10.17173708370215
C           13.14961325411153        3.49728146545348        5.57142729337149
O           14.52671903109306        3.46582980156201        5.82552262907792
C           15.36617103984911        3.71773418740889        4.69964588322545
C           16.83356199436276        3.82402461918395        5.09056456852594
C           17.74444755186813        4.11482484819325        3.89958289893783
C           19.21798023861373        4.23097524014076        4.28741486690748
C           20.12688707874857        4.52898276860548        3.09504507978879
C           21.60103668600461        4.64606151096602        3.48207085585059
C           22.51195231489137        4.94579442392397        2.29055893782004
C           23.97632624781997        5.06253129643542        2.68418218939051
C           12.62536622969907        3.59886032790895        4.28564883506471
C           11.25993464577384        3.64462442020328        4.02466216874285
C           10.81078210632794        3.80822764347773        2.65862448475234
C            9.58967871618003        4.24006981662648        2.29858730440677
C            9.10489968662869        4.38607606112730        0.94116242175665
C            9.82535013292526        3.98877058618601       -0.17928390430339
C            9.27816314259341        4.15065567800965       -1.42839572895465
N            8.08327156900681        4.66735373639070       -1.67266489628941
C            7.40250998270524        5.04195409769225       -0.60026244226012
C            7.84950549496529        4.92816057778390        0.69266799661682
H            1.38581328468285       -1.80534683606856       -1.01549906974483
H            1.64436408268436       -0.06492119647811       -1.09205087571078
H            0.88937506366474       -0.77648022945037        0.32522323200643
H            3.79480964143200       -1.27731457195562       -0.54731317525759
H            3.04726109846555       -1.98427248016344        0.85852446994219
H            2.69043060418500        0.31535749994910        1.82688508346441
H            3.42741054847974        1.02400210814857        0.41809617231971
H            5.56833082349178       -0.22233028338392        0.91851031778926
H            4.83374442067148       -0.90691054766372        2.34102636471472
H            4.49916707344973        1.40762137570913        3.28555524101921
H            5.20882745808383        2.09518310529795        1.85247280841313
H            7.35647325665810        0.84189253730376        2.33371156428809
H            6.65429955908415        0.21818250926471        3.80040297744344
H            6.37543281945479        2.56412556355703        4.67612215617219
H            6.99741678479201        3.19833945527486        3.18220507710900
H            9.18141684951147        1.94148370744793        3.60933805561199
H            8.56127090882940        1.48973408582263        5.18843354449806
H           10.18238906716852        3.38059190295225        7.21863553911546
H           11.89014757535411        3.29206148425421        8.77723227316645
H           14.72925483640886        3.32686365647428        7.73861027957521
H           12.43366218462220        3.20867965841688       10.76927804822444
H           13.30439233046737        3.07520452380883       13.03787770863751
H           17.16612332767557        3.05034531696213       11.71932512197327
H           16.45985078338481        3.18165606900523        9.38469845313904
H           15.03548486791016        4.64926229910886        4.22674571024452
H           15.22330220776789        2.90594698584474        3.97777347564170
H           17.14542660349311        2.89711823673675        5.58505398242204
H           16.94898401698646        4.60600283219569        5.84966821977711
H           17.42019417212385        5.03912010301296        3.40607996817235
H           17.62304992150271        3.33008014667969        3.14305235713030
H           19.54406952933453        3.30562213370964        4.77739985843137
H           19.33828635364037        5.01332514331350        5.04649128413231
H           19.80001561955671        5.45433969996484        2.60542617704621
H           20.00617307332681        3.74695445197209        2.33565933205178
H           21.92758230473201        3.72038394823905        3.97129413122270
H           21.72074623246895        5.42742064168046        4.24232559208532
H           22.17718683280008        5.87040709960590        1.80194301073460
H           22.38581541868095        4.16222255198665        1.53176393022649
H           24.12640873420484        5.86161416797084        3.41238032123619
H           24.61656258349380        5.27599234899372        1.82541512708412
H           24.33665116579493        4.13912650547200        3.14117664708635
H           13.29272042303828        3.65871374078638        3.44732160601159
H           11.53020377564881        3.60056333095087        1.88707632371786
H            8.90415590087746        4.50353874491276        3.08262998427728
H           10.80098778851926        3.54994342731387       -0.06923069835451
H            9.84696545859045        3.83902799623925       -2.29181287197866
H            6.42501202609610        5.46459309179596       -0.77890560698432
H            7.23667463133285        5.25286394838121        1.51608459434599
