108
 energy: -19.107509314125 gnorm: 0.001264756656 xtb: 6.5.0 (97a52f5)
C            0.70327037428314       -1.36895791075107        1.44289681756820
C            2.05750429342138       -1.25445186796278        2.12591030408095
C            3.09319975678327       -2.22625003883526        1.55694145689876
C            4.46048055856778       -2.10812413006468        2.23131832760464
C            5.49884892579648       -3.06907258129856        1.65147846870912
C            6.87477175186219       -2.92736911859370        2.30265817118481
C            7.92044342764527       -3.86190723674712        1.69655009661602
C            9.30249831180719       -3.69265447082903        2.31236937278384
O           10.26484712509729       -4.54088575253458        1.69352102060565
C           11.57466748754946       -4.35575337290328        2.12272074179398
C           12.57657908929131       -5.07780105086701        1.46029902899626
C           13.89209885838462       -4.94388468130960        1.80118678870204
C           14.28761825249132       -4.09205372018339        2.83771884301434
C           15.68470355201692       -3.96235557087168        3.16441137827351
C           16.80673985347141       -4.38107760312516        2.17893250836281
C           17.34750691334944       -4.56643427485455        0.52864130300873
N           16.60822480182383       -3.04008469566526        1.09477845539544
C           18.18883847226987       -3.38947543964794        1.53886769629578
C           17.47900587662783       -6.82819627173553        6.01595881975773
C           16.14004946705804       -6.61455021597903        5.89071302991424
C           15.54916627122825       -6.85095845715003        4.68244185962705
C           16.32879789016672       -7.30419858444277        3.57015893721748
O           15.67827065801286       -7.50602799158757        2.39564946737489
C           16.50713709890087       -7.92798593369573        1.31186962804537
C           15.70877237529767       -8.10812644520350        0.02844923569252
C           16.56362008838025       -8.51848603737969       -1.16734423246647
C           15.74273849853076       -8.66815131354689       -2.44757196611845
C           16.57972638175105       -9.06997078280356       -3.66052730774381
C           15.74612046449055       -9.20846325094479       -4.93445846213798
C           16.57576981587121       -9.60711087497973       -6.15559559941810
C           15.73590981900310       -9.75226470975062       -7.41525491555823
C           17.73176928714887       -7.50160469615362        3.77751466002255
C           18.28334634349048       -7.25895994986425        5.00443648902418
C           18.13872140310304       -3.99761817148426        3.05321232658584
C           17.66068301104558       -3.52504655476488        4.25852435897577
N           16.23444817489793       -3.48313026095084        4.26704727412173
B           15.51529246886321       -3.00703267062215        5.51981759618118
F           14.54408448348955       -3.92909384931819        5.88565446093357
F           14.97122164017788       -1.75062766018433        5.29621184629625
N           16.52566630238883       -2.89692751186196        6.65621810780882
C           15.96881341236178       -2.63995039713928        7.84832768410340
C           16.74591715348631       -2.47968169946609        8.96768021411751
C           18.12138928720736       -2.57889573127425        8.85057607274949
C           18.68463417908682       -2.83646622194202        7.62945063231120
C           17.88205538350538       -3.00661323093190        6.49077485686387
N           18.48042943377447       -3.26916477816278        5.31502575618696
B           12.70566366878287       -8.21695444775306       -0.74649164776682
F           12.85027990460578       -7.88892350554512        2.57184119512427
F           12.74107869036024       -9.52610242774993       -1.23377133578425
N           11.53398986750969       -7.27181891467244       -0.80394141135641
C           10.43903695729930       -6.48698184198233       -0.79360047541285
C           10.42023375017807       -5.33214765125127       -1.53580283178314
C           11.52518177041420       -4.98626862457210       -2.29677607467476
C           12.63947842654496       -5.80118809298046       -2.30737637405891
C           12.63606612842853       -6.94736334896968       -1.54960118539309
N           16.45018147399479       -3.72489861754248       -0.14859041798749
C           13.28909940533404       -3.37609951827931        3.50500588287525
C           11.97021803717672       -3.50034972602513        3.16195256847669
H           -0.02509651499272       -0.66956395668917        1.85829489683170
H            0.29225811704421       -2.37407571424372        1.54917687370892
H            0.78266705414555       -1.16482778987369        0.37393916102426
H            1.95210220268893       -1.42806855411255        3.20465981845013
H            2.43754589655440       -0.22835724204772        2.03839101816460
H            3.20012797532420       -2.05811682818359        0.47876231776322
H            2.72423922488661       -3.25439363202355        1.65073237727219
H            4.35727174230225       -2.28337337750456        3.30859713715339
H            4.82477896466433       -1.07790585682289        2.14247759199661
H            5.58657317629524       -2.90454997081465        0.57110298020888
H            5.14568867614558       -4.10165709792272        1.75572162449985
H            6.79489635369354       -3.11114806111217        3.38043735527121
H            7.21632956703434       -1.88945989245410        2.21331284397407
H            7.98842473495645       -3.69260691903660        0.61631015196003
H            7.60159485511422       -4.90460789489423        1.80331946487184
H            9.27863869348550       -3.92675427455183        3.38253593101467
H            9.64167998398485       -2.65662855110676        2.20134657041146
H           12.28193121293372       -5.74753217659070        0.67295592643974
H           14.64512360183005       -5.51365096449117        1.28625737432179
H           15.56537648745284       -6.25443613064665        6.73164781256471
H           14.49746923722719       -6.68278256205947        4.53710462163152
H           16.99224362666714       -8.86936206607656        1.59404117767588
H           17.29416332944404       -7.17944308125180        1.16766766469578
H           15.17964695082450       -7.17688277458033       -0.20100544403970
H           14.91927023054536       -8.84962770727289        0.19617473076939
H           17.08357357022943       -9.45851236630967       -0.94685346238173
H           17.35939727485366       -7.77995179994210       -1.32288699479536
H           15.22021466819666       -7.72753124071806       -2.65911908029455
H           14.94656852134269       -9.40566549998970       -2.28914554469843
H           17.09914251987688      -10.01350662366618       -3.45436778329233
H           17.37679479068050       -8.33359912970956       -3.81893507149344
H           15.22367345885364       -8.26554291824878       -5.13650496471272
H           14.94961138448800       -9.94517436422304       -4.77401211806084
H           17.10433237970771      -10.54591000673388       -5.94364581291596
H           17.36885414366729       -8.86421135685467       -6.31321380314352
H           14.96541186662159      -10.51524988829976       -7.28996042830574
H           16.33941238342219      -10.03438780310957       -8.28074061728491
H           15.22637305715656       -8.81834740475377       -7.65957066276578
H           18.35485938107807       -7.83707172930982        2.96945771267530
H           19.34072766607980       -7.39839010089159        5.17594961887265
H           14.89549652711444       -2.56572972689752        7.89634222391737
H           16.29237838258490       -2.27782294905956        9.92389379359006
H           18.74649326621990       -2.45412927820881        9.71952829771539
H           19.75185958431217       -2.92055401227686        7.52358171999969
H            9.60368973766013       -6.77824984672777       -0.18114063305534
H            9.55227512626036       -4.69412327205818       -1.52067340519429
H           11.51583994612510       -4.07915499470315       -2.87847826745750
H           13.50599836522904       -5.55225652502275       -2.89474229383195
H           13.57992505101496       -2.71348330743148        4.29845851910743
H           11.23045693717006       -2.93740742901979        3.70088496280524
