73
 energy: -12.789256046222 gnorm: 0.000517488823 xtb: 6.5.0 (97a52f5)
C            1.07943854306410        0.65397237056910       -0.36048580698402
C            2.55771766534855        0.31760180789185       -0.24046818865630
C            3.14732955565598       -0.23561857041053       -1.53895936512662
C            4.62981533892393       -0.58921357314991       -1.41996420378511
C            5.21329112427675       -1.16833559953067       -2.70882267415138
C            6.68042138837427       -1.57314109860379       -2.56898823970111
C            7.25255439833776       -2.20006250433583       -3.83892901989765
C            8.68718732693577       -2.68122237165636       -3.66578296381079
O            9.19860737778540       -3.34205932805659       -4.82249752160723
C            9.59361908572603       -2.51416115195180       -5.88029311381771
C            9.98855277429039       -3.14700563801920       -7.06641990511156
C           10.41404808944521       -2.42718448712937       -8.15187852160156
C           10.47678512243486       -1.03245495952552       -8.12242290493792
C           10.95690701492752       -0.33142807142563       -9.28623339631687
N           11.12268521910462        0.93512848022322       -9.39643467895261
C           11.61860515324679        1.53212738476152      -10.55955359760228
C           11.20616251763790        1.08410706087779      -11.83617049680044
C           11.70941092937942        1.62516156603520      -12.98953296086247
C           12.65437676036468        2.64751695494403      -12.88945884655035
N           13.36820715277665        3.37587771978816      -13.81854013136098
C           14.17544661154565        4.24786190626417      -13.09784789891274
O           15.06463118154009        5.15326052731196      -13.65566047165127
C           15.17131126380158        5.01803089013398      -15.06566497779194
C           16.23972345922594        5.93162063328487      -15.65217109820853
C           16.39617853428665        5.77485664719590      -17.16363057167207
C           17.47595285507959        6.68372131600029      -17.75089867053236
C           17.64201239432848        6.51876094811723      -19.26237442864640
C           18.71947155445883        7.42370366718472      -19.83942895334431
N           14.00083833928691        4.11152354981057      -11.78782303276319
C           13.07179977596812        3.12657252797149      -11.62532957999692
C           12.54012754309654        2.56221554599932      -10.46202582178649
C           10.07156662826405       -0.37067244464639       -6.92898788707888
O           10.10569234701240        1.00337917522503       -6.83132547315061
C            9.63867306630181       -1.12360433293705       -5.84293306733887
H            0.67120559472822        1.04664888874397        0.57320483357870
H            0.49529890454971       -0.22783499596472       -0.62927525211446
H            0.90703094938469        1.40295173350179       -1.13523889851302
H            2.71434326670848       -0.40986354794859        0.56684762859812
H            3.12440091445566        1.20694129874665        0.06495162528630
H            3.00499253468635        0.49054994843116       -2.34819983424249
H            2.58220260195541       -1.12268844898755       -1.84936263870625
H            4.77021935484919       -1.30472056976329       -0.60097396404099
H            5.19977324536229        0.29921043557051       -1.12316043073362
H            5.10444743563856       -0.44354284677381       -3.52448336119777
H            4.62197209385179       -2.03821132420593       -3.01917667201157
H            6.78577558331766       -2.27741506169402       -1.73509480005617
H            7.28062001363864       -0.70111527399355       -2.28338309146988
H            7.19338344552609       -1.48845264653189       -4.66931753905653
H            6.62935562430651       -3.04687457145472       -4.14815039635130
H            8.73919282454307       -3.40888152603057       -2.84714827564899
H            9.36435587092828       -1.86940374869418       -3.38133891884285
H            9.95312751751143       -4.22136254427036       -7.10249012857282
H           10.71481225088928       -2.94201995306799       -9.04833224596944
H           11.24312510535140       -0.93506056704714      -10.13013103749689
H           10.46939737773254        0.30237837461077      -11.89036294755305
H           11.39573978884629        1.27840650726739      -13.95774314799590
H           13.29080127076452        3.26988071819921      -14.82680568596032
H           14.19178913367701        5.23975621502896      -15.50466183569138
H           15.40294275854487        3.97010724346205      -15.28889707225114
H           17.19543386303794        5.73126653428601      -15.15490739251629
H           16.00164655192240        6.97210839129275      -15.40454125887194
H           15.43729246336141        5.97573109855235      -17.65598249578298
H           16.62627017580850        4.72967419598630      -17.40241635681531
H           18.43285578002243        6.48701236547692      -17.25279676049374
H           17.24326764017351        7.72970526220464      -17.51813194632001
H           16.68095348290383        6.71374726829641      -19.75591905718845
H           17.86988242735912        5.46903697363931      -19.48917939790657
H           18.49214242075382        8.47497183199614      -19.65471398588827
H           18.82803498617918        7.29556946996061      -20.91856498335244
H           19.69063008657633        7.21992050582469      -19.38521498318086
H           12.86355515035447        2.91036505676175       -9.50008411667682
H           10.45783445076666        1.30523904062780       -7.69278203944158
H            9.34501696683743       -0.59225828022667       -4.95955266800702
