108
 energy: -18.617475114636 gnorm: 0.000672036693 xtb: 6.5.0 (97a52f5)
C            0.58077181814789        0.10018572887078        0.39762286003669
C            2.02498845969684       -0.06532747112479        0.84547564379247
C            2.62387259028054       -1.40946076370461        0.42816813079109
C            4.08309051955843       -1.57361762559574        0.85365871321329
C            4.68225241293151       -2.91399292378111        0.42765062253588
C            6.15336997042848       -3.06194557692737        0.81419066814036
C            6.75519830103756       -4.39412280557868        0.37135650372837
C            8.23347178488630       -4.52150646205013        0.71364276466592
O            8.79323342865117       -5.74431841819666        0.23468391232339
C           10.19277533344806       -5.80907241531292        0.29076083315629
C           10.99901919374247       -4.90541454679774        0.99291864986307
C           12.36640073569724       -5.02820471503754        0.97495547132249
C           12.99206496053425       -6.04671913136052        0.26545814169643
C           14.39033370139374       -6.13673380997920        0.23114740485298
C           15.60955016595740       -6.19977152649555        0.15892848710481
C           17.01315401662565       -6.23216881304471        0.04639966870999
C           17.74737045635679       -5.02889813338124        0.05408041458306
C           19.11233368258962       -5.00938067926467       -0.06664524040992
C           19.80870047966411       -6.21808410179103       -0.20288612761700
C           19.07849801964414       -7.42595554965509       -0.20680798545340
C           17.68797233859190       -7.43177882899163       -0.08416540913376
C           20.01988794019719       -8.50401811888833       -0.35987422511518
C           19.86153768637642       -9.89118691657843       -0.42714733458482
C           20.97924510671434      -10.67453762126166       -0.57880148645441
C           22.25338221938763      -10.10156367638982       -0.66434547875522
C           22.42444895649724       -8.74105840765035       -0.60098013314920
C           21.29806818780354       -7.92666028768273       -0.44701599620837
N           21.17459000200509       -6.53149140708297       -0.35574731251697
C           22.36412804017622       -5.65484506509907       -0.42077045515382
C           22.09476747905536       -4.15905217857178       -0.43465689917589
C           23.36272192515958       -3.32023868460218       -0.59297281042867
C           23.07600188562329       -1.81881472225779       -0.61053650815998
C           24.33484834695782       -0.96614057549947       -0.76522479405931
C           24.03758870022229        0.53348752367640       -0.78779560882874
C           25.29351944603353        1.39355919593783       -0.93558957879887
C           24.98683549623723        2.88316490236750       -0.95996798259958
C           12.20274034252778       -6.98148596912252       -0.44497850474833
O           12.86641171874518       -7.99051199051313       -1.15410218838569
C           12.02351042875848       -8.82134613030443       -1.95084227597621
C           12.81765506003157       -9.82407236813728       -2.77679740561421
C           11.92946302685128      -10.70288328128015       -3.65521840395014
C           12.72093282764098      -11.69767508548148       -4.50355854991506
C           11.82834781649805      -12.56667462519429       -5.38938045399267
C           12.61667901203482      -13.55111249890965       -6.25338837113577
C           11.72187499324785      -14.41169257906945       -7.14696533637438
C           12.51056385183404      -15.38523255859169       -8.00891491011869
C           10.81767848811668       -6.83995679029161       -0.40516903088126
H            0.16400293146483        1.06303048077130        0.70216973545880
H           -0.05538585752060       -0.68092026109542        0.81843244425700
H            0.49443127876966        0.03415258055921       -0.68880227356246
H            2.09811190653137        0.04173193658994        1.93606186013397
H            2.64167508580493        0.74755883688509        0.43913629131787
H            2.54313968320332       -1.52563472486314       -0.65969480271388
H            2.02340738351666       -2.22667737610889        0.84642123065481
H            4.16634869329750       -1.46085950979845        1.94157893323648
H            4.68138437450029       -0.75454201461590        0.43600176377519
H            4.57454061589776       -3.03559516845203       -0.65722364434763
H            4.10095665676396       -3.73494148118897        0.86497722808210
H            6.26514176025163       -2.94814707185733        1.89922497698723
H            6.73070717294704       -2.23636202456274        0.38046016972871
H            6.62652733886060       -4.51874322609437       -0.70995641604739
H            6.20297322570369       -5.22654658616970        0.82209717595601
H            8.38217598930895       -4.47548955384929        1.79829023947355
H            8.79286400748128       -3.69091927886851        0.26826906203190
H           10.54557088630274       -4.11105136468268        1.55727297326001
H           12.97789505555728       -4.32347229340537        1.51300513868005
H           17.20563010795115       -4.10369498929822        0.15598793940290
H           19.63331675180002       -4.07158225349688       -0.05848781921902
H           17.14694488815339       -8.36030558726152       -0.09625820307727
H           18.87857149540448      -10.32320441510262       -0.35986944446311
H           20.87563255236695      -11.74602255984207       -0.63231820617205
H           23.11342659475732      -10.74038281889671       -0.78270597320649
H           23.40216245098905       -8.29760680089082       -0.66563760673800
H           22.92412151432260       -5.93228725978260       -1.31913510331306
H           23.01116244710104       -5.90873413885011        0.42438009731914
H           21.58792760624266       -3.87021837143809        0.49308237443477
H           21.40057649793463       -3.92168223217839       -1.24918788085977
H           23.88415174193554       -3.60765555480957       -1.51415374846461
H           24.06461635455776       -3.55393556228151        0.21685692390370
H           22.54994012093659       -1.53445679070132        0.30904011917368
H           22.37403509130212       -1.58843079927793       -1.42135697282099
H           24.86329474153185       -1.25151019104693       -1.68307527526036
H           25.03512104326929       -1.19163341293540        0.04835730642700
H           23.50359454351206        0.81644089839718        0.12769365618992
H           23.33968209357707        0.75794379113221       -1.60383293084249
H           25.82707842337939        1.10232647986202       -1.85022972433948
H           25.98865300089575        1.16395613275673       -0.11694808839880
H           24.32518304737854        3.13660190723757       -1.79050986052169
H           25.89104973915516        3.48727141064734       -1.06427565615250
H           24.48575321413770        3.19819541545049       -0.04264343456011
H           11.43113254167843       -8.17658873365217       -2.60995715732775
H           11.32734126375486       -9.34411961811201       -1.28539527399715
H           13.42184630182148      -10.44818798064790       -2.10845781772856
H           13.54291921249490       -9.28578404908147       -3.39772255337408
H           11.31730681334656      -10.06894601930575       -4.30838299910747
H           11.20992208405075      -11.24326228349710       -3.02803016290362
H           13.32970346374453      -12.33650720881984       -3.85196827805544
H           13.44346348210078      -11.15659934571684       -5.12690421537247
H           11.21265278266569      -11.92532237713548       -6.03189231317220
H           11.11207718123220      -13.11508100942350       -4.76532943121939
H           13.22813241372453      -14.19739143519352       -5.61171145691718
H           13.33674346939174      -13.00255455719055       -6.87299094367658
H           11.10730583191963      -13.75832278659547       -7.78072657189146
H           11.00236248986441      -14.95723654923897       -6.52183159537355
H           13.20782932222817      -14.85796085320056       -8.66281849330149
H           11.86026878883540      -15.99196959537224       -8.64329003048398
H           13.10032830413408      -16.06840632128731       -7.39475372521874
H           10.18851864170775       -7.53121498758473       -0.93087364628729
