90
 energy: -19.674725551065 gnorm: 0.000232556748 xtb: 6.5.0 (97a52f5)
C            1.15075010242209       -0.38181414355215        0.93922958297593
C            0.31770581942379        0.65894031218897        1.11298858957391
C           -1.10652492540212        0.57863487510338        1.38468389133325
C           -1.85368591357163        1.75838442169353        1.45732732886161
C           -3.19590682480076        1.73093854886541        1.74414465657008
C           -3.84974588777567        0.52395063124979        1.97364704809695
N           -5.24718471902787        0.50427746360287        2.30238539268016
C           -6.23298675858496       -0.33201953948665        1.73223019199609
C           -6.14255980948293       -1.31201486655068        0.74389553212890
C           -7.28440949769949       -1.97157123287880        0.35850360288027
C           -8.52057687766788       -1.67040660721522        0.93656800541648
C           -8.63014943614307       -0.70080393914642        1.90471633295065
C           -7.47858210872982       -0.02240849100678        2.30563499388039
C           -7.26020649389150        1.03716055553475        3.26296656583252
C           -8.12494429232061        1.72528158314303        4.11512301689271
C           -7.60565569421102        2.69604570491028        4.93831539377702
C           -6.23940784983265        2.98928841423538        4.92960634311911
C           -5.37721221875777        2.32144083614440        4.09434496027476
C           -5.88820600630872        1.34107838770167        3.24356657021586
C           -3.11462552061233       -0.65616862179964        1.89508086323783
C           -1.77082859106271       -0.63174365631415        1.60709624154399
C            2.58384316267657       -0.26953566719644        0.72170530251442
C            3.33570706859558       -1.40583115482489        0.40792060163241
C            4.69624825543655       -1.32980783068706        0.22188285767314
C            5.37146515973260       -0.11410419917695        0.34795655605222
C            6.83680282723230       -0.01919073790222        0.17890915075210
C            7.51288119697590       -0.77040485280024       -0.78451559107842
C            8.87193754530896       -0.64498652975513       -0.95355499677782
C            9.62141719789928        0.23214456162441       -0.16367488437135
C           11.05111633901778        0.37115745740774       -0.38755288986492
C           11.88189290449863        1.09798589839648        0.37987779082126
C           13.29985920080147        1.30580657989457        0.14511985593622
C           14.04562397591548        2.03430664673383        1.07708404431744
C           15.38011774053327        2.28620166684890        0.87603080187624
C           16.02711258793803        1.82406180531751       -0.26624485774147
N           17.41513573498909        2.11743041063986       -0.48585135488678
C           18.41308133699162        1.20272805968892       -0.89052421630810
C           18.34641434925535       -0.16296761044692       -1.16600287884729
C           19.49600491346871       -0.82288218690159       -1.52702383062126
C           20.71687561851578       -0.14852739920107       -1.61483963944645
C           20.80313012790093        1.19504603853128       -1.33774114588163
C           19.64347531657738        1.87803782809972       -0.96929509830228
C           19.40251615035197        3.25529158397164       -0.60620128108009
C           20.24545968620062        4.36400046781865       -0.51865684540643
C           19.70707250624994        5.57452173028097       -0.15207146990780
C           18.34295693151623        5.69944218311143        0.12404273398680
C           17.50214292922913        4.61605002201297        0.04389486268676
C           18.03288952809687        3.37698273021531       -0.31550093512687
C           15.29385441141408        1.08973418912648       -1.19480382922640
C           13.95804041288033        0.83475126095267       -0.99540642346624
C            8.94371364665499        0.97403345189890        0.80777010223234
C            7.58581417183766        0.85046371763488        0.97346497795662
C            4.62052497058768        1.02146127648607        0.65643197326914
C            3.26121435298751        0.94735268741243        0.83867298593018
H            0.74740317690470       -1.37738881216135        0.96229019977301
H            0.72239024532400        1.65226784795195        1.05049818244580
H           -1.36088313288216        2.70031381089754        1.28664035084890
H           -3.76281171874359        2.64455020709040        1.78383984552742
H           -5.19179161354117       -1.53053330696644        0.29210881407242
H           -7.22757219788662       -2.73178798863626       -0.40331730742780
H           -9.40028110179090       -2.20366552060525        0.61541922829027
H           -9.57865209416930       -0.45788857598488        2.35040635784887
H           -9.17451896213147        1.48944102231599        4.11931981672674
H           -8.25969507457327        3.23665552413343        5.60268211899328
H           -5.85691026945691        3.75015566713462        5.59019376233611
H           -4.32326244169273        2.53383627970717        4.09475977217370
H           -3.61238738518162       -1.59016696428851        2.08867560078377
H           -1.22179697149677       -1.55546851927752        1.56814586539302
H            2.83344265226999       -2.35371684208644        0.31611372289502
H            5.25866477714135       -2.21942495573326       -0.00299034627132
H            6.95195110494611       -1.43759277643121       -1.41574724509991
H            9.37441180033302       -1.22395669418657       -1.70953142355984
H           11.45301393278987       -0.14590846899103       -1.23930764321973
H           11.47954413061875        1.58430490377822        1.24931547163221
H           13.55770707954390        2.40333557448905        1.96308844590984
H           15.94653762979333        2.83622045300767        1.60698260056697
H           17.40786755007354       -0.68076290208617       -1.08315830352166
H           19.45746971902512       -1.87796258281065       -1.74346586151550
H           21.60321924479949       -0.69111394674795       -1.90014000813343
H           21.73971865555859        1.72097578048387       -1.39688295773742
H           21.29338270921177        4.26008282802128       -0.73843689181891
H           20.34411878543603        6.44075673434436       -0.07989454961302
H           17.94504984232152        6.66165942134723        0.40223770166434
H           16.44952099138344        4.71110657662555        0.24101847312072
H           15.78564238636813        0.74537312139821       -2.08766479972893
H           13.41029282678249        0.27901447224752       -1.73520003645301
H            9.48609387244167        1.66507642060594        1.42754683845192
H            7.08547601034131        1.42479182284171        1.73391646910472
H            5.12026249758176        1.97100981485185        0.74065737041905
H            2.71706258824481        1.83995585183529        1.08976283157947
