93
 energy: -16.120640058462 gnorm: 0.000634935992 xtb: 6.5.0 (97a52f5)
C            1.51694623131624       -1.07283168126855        0.16813666897353
C            3.03378298825803       -1.15814019256747        0.09904489060805
C            3.66225482065266        0.03734882419473       -0.61891029385697
C            5.18622932307707       -0.04813518756190       -0.70158380814731
C            5.81337641695757        1.13399335695463       -1.44052981359287
C            7.33606496639243        1.03948644368535       -1.53071335156560
C            7.96345749101974        2.19241600716131       -2.31202301460774
C            9.47756717603267        2.07424831251112       -2.42402444249787
O           10.04691242303412        3.12164887858452       -3.20867295658445
C           11.39626664923007        2.93904021828801       -3.53140218977647
C           11.95669029877510        3.78548419585414       -4.49598570095090
C           13.26127598945201        3.64475775395035       -4.89531754094238
C           14.07569089970269        2.65320571961046       -4.34396455269734
C           15.46358043473200        2.46371949856083       -4.80420749362556
C           16.04415308824416        1.28137317618389       -5.20917586162201
C           15.32869467473848        0.02934461978163       -5.46132375515821
C           15.96738147903229       -1.21706216025815       -5.43716584814226
C           15.27441696218605       -2.37912943038299       -5.65905577514370
C           13.89894747003835       -2.37203859911092       -5.92053324382896
O           13.25877807355250       -3.60251649807716       -6.09152359802675
C           11.83278811245464       -3.53563808642614       -6.11584581539524
C           11.19150946573516       -4.91576355527106       -6.05439832867554
C            9.66480560230423       -4.86504899099478       -6.02606136018743
C            9.02461367996586       -6.24729569780235       -5.89852963573763
C            7.49850254517044       -6.19688025932536       -5.82449917358416
C            6.86231277092545       -7.57807951400268       -5.66601478032188
C            5.33694007556448       -7.52818492316185       -5.56512168769667
C            4.71252116772638       -8.90428976316455       -5.39302868761534
C           13.26314252837957       -1.12687939763170       -5.98735766664690
C           13.96107053083638        0.03261920285493       -5.77069568271179
C           17.53662504460088        1.54198536933753       -5.50209325840754
C           18.45316154670375        0.87692100934761       -4.45910135263556
C           17.90658128315811        1.11140594297783       -6.92841811047240
C           17.65738013428232        3.05519866349384       -5.35168974581787
C           18.73623780089337        3.89655986634752       -5.53818103614987
C           18.58878590608536        5.24603881964258       -5.26910100685356
C           17.37949195261331        5.74651395955083       -4.81174905513991
C           16.29954861399505        4.90887971657230       -4.62159276933545
C           16.43933359969345        3.55305489754520       -4.89763057749836
C           13.52916472858273        1.82626491279598       -3.35893932526713
C           12.22274299237868        1.96208896646748       -2.96256932279419
H            1.08019110579529       -1.93246648532230        0.68175416357651
H            1.07823604786778       -1.02977051287395       -0.83061749381057
H            1.19603086752379       -0.17473892580689        0.69930632593215
H            3.33712132077257       -2.08462075578598       -0.40666007775529
H            3.45496918651543       -1.23645722712550        1.11023928833059
H            3.37183867078054        0.96630138536693       -0.11296257640165
H            3.24336098292719        0.12087916574228       -1.62928606952260
H            5.47518407441659       -0.98426005497236       -1.19498967675681
H            5.60761691040589       -0.11726666030873        0.30874391096416
H            5.52947780172689        2.07189277202060       -0.94781396474711
H            5.38912741148655        1.20261498375479       -2.44970442221343
H            7.61660136987473        0.08679835453879       -1.99641476181686
H            7.76478571802439        0.99994362789594       -0.52194183948927
H            7.70514928714681        3.14983816148061       -1.84551837290543
H            7.53159585290077        2.23919545279491       -3.31828213285861
H            9.74373702668623        1.11724461888607       -2.88703951678275
H            9.93824229235615        2.09938858359780       -1.43022858488872
H           11.33078337360848        4.54294608040868       -4.93355689228200
H           13.66502897821429        4.28423485472365       -5.66136648188123
H           17.01866241923694       -1.27142977803814       -5.22953329309728
H           15.77733950114996       -3.32938488489211       -5.62193614182767
H           11.52798721478047       -3.01104693887860       -7.02823683650944
H           11.50355335405624       -2.93220975079099       -5.26227177420416
H           11.56205092232593       -5.44265498409240       -5.16767063615629
H           11.53319103080100       -5.51527453648746       -6.90574029682893
H            9.29349417179071       -4.36559471082283       -6.92912770798081
H            9.33503727197531       -4.23094607680764       -5.19408071119028
H            9.41751930323538       -6.75197742136142       -5.00739781221917
H            9.33364461092825       -6.87730190630239       -6.74153155892355
H            7.10086177724769       -5.70700859404612       -6.72172726361933
H            7.19268080839438       -5.55411504850171       -4.98988067436712
H            7.27266826312696       -8.07152427325860       -4.77654659502459
H            7.15582163298827       -8.21814191808757       -6.50691621276882
H            4.93049679595509       -7.03714705087143       -6.45920575266845
H            5.05053011851239       -6.87662636154093       -4.72893452181898
H            4.95814558487387       -9.55706588536189       -6.23280358772357
H            3.62347243984675       -8.85537959997039       -5.32262959011033
H            5.07831749256398       -9.39348740478858       -4.48831716432804
H           12.21440435588754       -1.07607310143646       -6.21755045823778
H           13.44986313395606        0.97532740801338       -5.84849310111643
H           18.47227789355826       -0.20568296827572       -4.55298515328037
H           18.12429298777484        1.12371168720834       -3.44993922529597
H           19.47804026329252        1.22979638405868       -4.57104156202371
H           17.78694031433387        0.03710177140263       -7.06000049089303
H           18.94168952868711        1.36503767237033       -7.15467381325611
H           17.26941130852177        1.61278735438778       -7.65626769094681
H           19.67534032485750        3.49873058395728       -5.88154236520746
H           19.42345093614714        5.91297479199624       -5.41153473797350
H           17.28242117274187        6.79924121254205       -4.60161126168542
H           15.36042221280131        5.28800877687917       -4.25937202704842
H           14.15097044340340        1.06345359183940       -2.92217185768106
H           11.83251419282914        1.30875014565979       -2.20363888871315
