91
 energy: -15.944259950426 gnorm: 0.000581178079 xtb: 6.5.0 (97a52f5)
C            1.13103915939665        0.00666934041695        0.56624060250126
C            2.61928978053949       -0.29955818610943        0.63343326304034
C            3.17700546200605       -0.81740039772042       -0.69310084982745
C            4.67065210058359       -1.13818725214241       -0.63315289118877
C            5.22554365021516       -1.63710206976312       -1.96707279735646
C            6.71474380670363       -1.97686476422464       -1.91024255240019
C            7.26885704487797       -2.43674254714047       -3.25733411856708
C            8.74881033565315       -2.79240590520169       -3.20753283341960
O            9.25114400693193       -3.16187715161371       -4.49069108264751
C           10.62091276655943       -3.45028902778549       -4.53055187137573
C           11.46649491075795       -3.49081512033194       -3.40874095313511
C           12.78910606392181       -3.79649471323723       -3.54222024579420
C           13.36049960474923       -4.09014033806061       -4.79327641093373
C           14.75210556395974       -4.43395339282996       -4.96089673940998
C           15.30305843311635       -4.55132708910362       -6.21884193424497
C           14.51049336500957       -4.41569215135434       -7.40150607986548
C           15.05138303718607       -4.52457413033546       -8.69895455142811
C           14.27134539769188       -4.41627221581377       -9.81104004970485
C           12.88719681278015       -4.18861200011425       -9.70107515333917
O           12.00787441350378       -4.06135356003946      -10.78151423713380
C           12.61990273022304       -4.09623699210790      -12.07000472881784
C           11.60680099644624       -3.86163062770729      -13.18286200919447
C           12.22685733739888       -3.87617931419683      -14.57871428781029
C           11.20213432940599       -3.61532548509476      -15.68269664405675
C           11.81163590649217       -3.61689643449291      -17.08435617982865
C           10.78260196318803       -3.33721837971593      -18.18010542824316
C           11.38633363627256       -3.33189645180487      -19.58530124390188
C           10.35691916591614       -3.04109630287084      -20.66658641061023
C           12.34822969162980       -4.07594068920006       -8.42725039348359
C           13.12057162560045       -4.17566138038912       -7.26725050154633
C           12.53902755402619       -4.00204634140064       -5.94290635663819
C           11.18333932314519       -3.70381892978989       -5.77260939870250
C           16.80833781262637       -4.83312796360270       -6.09759071887515
C           17.18656019966283       -6.18253488740921       -6.73133780847821
C           17.64441562802637       -3.68003714881186       -6.67567250201369
C           17.01228852640271       -4.90975990510476       -4.58852878476813
C           18.15968660844592       -5.19489122120806       -3.87472737560091
C           18.08654513448846       -5.29787319847392       -2.49879477214082
C           16.87415135389722       -5.13572692316831       -1.85050999705589
C           15.72508441074744       -4.85196867780718       -2.56080091579223
C           15.78827860928106       -4.70877309131501       -3.94604647958957
H            0.74461652219528        0.37828344178253        1.51786830197171
H            0.55643292897806       -0.88346535856139        0.30385613414032
H            0.91732684045548        0.76188264552871       -0.19218838789549
H            2.81833369403911       -1.03645251547834        1.42293868103844
H            3.17675723933905        0.59706017836982        0.93553635790350
H            2.99056135691278       -0.07963931139793       -1.48323710524445
H            2.62108525370419       -1.71108131812318       -1.00226083099731
H            4.85641931030836       -1.88654836841318        0.14694750965134
H            5.22648744560285       -0.24850266716859       -0.31271482782788
H            5.05031489962999       -0.88158084372852       -2.74277084199937
H            4.65987145678045       -2.51768339840338       -2.29529301308921
H            6.88852595195319       -2.75254268786514       -1.15450676870293
H            7.27885974197373       -1.10440558367852       -1.55854806212414
H            7.11247397772757       -1.65588055854136       -4.01038536300746
H            6.70131324319771       -3.30075565741639       -3.62145024647478
H            8.91732519647615       -3.62605061657772       -2.51673604071115
H            9.33190897417645       -1.93843801717480       -2.84501894284715
H           11.06870483163736       -3.27200139780305       -2.43432824484952
H           13.41565875583492       -3.75902430266868       -2.67336187491339
H           16.10537553157302       -4.69161772540448       -8.81857694316213
H           14.71914599664306       -4.50885156926040      -10.78388465003769
H           13.10646157656856       -5.07009577022766      -12.19426324478869
H           13.40130990419570       -3.32870509920225      -12.10093779124550
H           11.10017239859633       -2.90509701049186      -13.01043299699629
H           10.81606235277182       -4.61768806592638      -13.11660060306437
H           12.72289848403035       -4.83866639608818      -14.75343833622370
H           13.02715103423719       -3.12820035545601      -14.63442586038635
H           10.70371578870812       -2.65531741043544      -15.50072616466134
H           10.40314969037314       -4.36480733972599      -15.62784626696383
H           12.30037883041131       -4.58042459134960      -17.27340857952313
H           12.61664290177387       -2.87374957302354      -17.13676840028393
H           10.29280492365384       -2.37485073599594      -17.98713275627386
H            9.97781570023128       -4.08073539529010      -18.12792493629037
H           11.87186864878837       -4.29845884457555      -19.77510715861617
H           12.19814519787003       -2.59357743992012      -19.62820518302316
H            9.55814016297428       -3.78517691333683      -20.66157821638920
H           10.79909062084304       -3.04044469782675      -21.66552627940895
H            9.88904717480615       -2.06656526577772      -20.51417142960126
H           11.29297532044508       -3.89779724802202       -8.36372463086949
H           10.52849170127859       -3.64858672943434       -6.61970389357612
H           17.03033794167858       -6.18726464109965       -7.80763369716940
H           16.58714130872181       -6.98514506436567       -6.30244405738033
H           18.23535931245664       -6.41385552131343       -6.54828957786470
H           17.49566948552195       -3.56941322911707       -7.74776388474525
H           18.70678389282053       -3.84802603312957       -6.50168198099183
H           17.37185729229268       -2.73763486583450       -6.20117189759959
H           19.09106078579724       -5.34444968269785       -4.39271838686617
H           18.97483829816375       -5.51976621824601       -1.92982560459181
H           16.82528755173306       -5.24366402831012       -0.77901615845100
H           14.78779430965278       -4.79527718360372       -2.04198244359062
