82
 energy: -14.588847104056 gnorm: 0.000572053585 xtb: 6.5.0 (97a52f5)
C            0.49081198472700       -1.22018346121580       -0.43729644511825
C            1.99529036132624       -1.37097177575177       -0.27528323410266
C            2.70300057543381       -1.70463101700175       -1.58979946238446
C            4.21658731387554       -1.84957121272226       -1.43316183292085
C            4.92931330690377       -2.16786714067805       -2.74776213797466
C            6.44501650559002       -2.28136406899639       -2.58860512366996
C            7.16989505055265       -2.57069497206941       -3.90214167139792
C            8.68204985562669       -2.63830797491716       -3.73563891392427
O            9.35811038664519       -2.86448919115973       -4.97312103055732
C           10.74454149634793       -2.79397404536664       -4.90319984992853
C           11.46654559368270       -2.64746365838486       -3.72454749084150
C           12.84337564919742       -2.56203824282624       -3.72662726030485
C           13.58831335105027       -2.61384242468418       -4.90133571036244
C           15.04186510806591       -2.50090362019233       -4.90461700982069
C           15.76852875188857       -2.32692711782718       -3.73392116513735
C           17.14766715949190       -2.18296684342091       -3.74941175167771
C           17.83391638655720       -2.22140741584682       -4.93106941510572
C           17.16241190152968       -2.42197097337539       -6.14495966577095
C           17.88554270374836       -2.46321919833437       -7.38227008768770
O           19.29175140225154       -2.36980911598738       -7.43981145480988
C           19.99634521690469       -3.45160310684364       -6.80279783064615
C           20.78812013587771       -4.28618162606219       -7.79850689218214
C           21.57842651961856       -5.41384871696468       -7.13721275776286
C           22.41929732677017       -6.21533747095201       -8.13032674709954
C           23.22460789773019       -7.33311691122165       -7.46768282441805
C           24.08372660262899       -8.11826868387137       -8.45852661904174
C           24.88914330930953       -9.23846362359088       -7.79814796940255
C           25.75068643680580      -10.00643203338839       -8.78849167959030
C           17.16177228338194       -2.58697789668565       -8.56190556136313
C           15.78881090174801       -2.70861771535129       -8.55846437932561
C           15.05106071779729       -2.70318672263509       -7.37779517649338
C           13.59817881030234       -2.83045317612005       -7.37286062716287
C           12.86691458799712       -3.00035098174126       -8.54183952982174
C           11.48323294420101       -3.10293496933519       -8.52614650740577
C           10.79800054533347       -3.03684226577480       -7.34468319890904
C           11.47832614405902       -2.87185454699519       -6.13149626403822
C           12.89332645536487       -2.77369104203238       -6.13362417088646
C           15.74832387605015       -2.54877012360207       -6.14394697873522
H           -0.00258591866618       -0.98380685549551        0.50829323408841
H            0.04141830360708       -2.13775471456609       -0.82157731587639
H            0.24801210525691       -0.42330759045945       -1.14275256750602
H            2.21976088931794       -2.15017414418112        0.46524370494592
H            2.42408749819951       -0.45069956283727        0.14332162872377
H            2.48274915509597       -0.92877481645924       -2.33324665709311
H            2.28537767925963       -2.62777764932168       -2.00983778155621
H            4.43812993395273       -2.63025406020409       -0.69522914392313
H            4.63066320010472       -0.92838732373338       -1.00528117535598
H            4.69454920114633       -1.39480895343481       -3.48954022999027
H            4.53041735001725       -3.09834717183812       -3.16955683531966
H            6.68195968781638       -3.06294988306455       -1.85651167476047
H            6.83663296880734       -1.35470250648368       -2.15151191365292
H            6.92331351773142       -1.80096895344279       -4.64234173886115
H            6.80742384981935       -3.51007431148031       -4.33475714099553
H            8.95323016858902       -3.44359164601035       -3.04378731652122
H            9.05235182251398       -1.69814721461359       -3.31152716839810
H           10.94506417873520       -2.60339239878138       -2.78584573179597
H           13.34652501235882       -2.44770128241724       -2.78413073880729
H           15.26122281126736       -2.28930890748105       -2.78763936774647
H           17.68039994714492       -2.03295922036805       -2.82426304525363
H           18.89932232912138       -2.07594314483146       -4.93936755134295
H           19.27679863598434       -4.07782571218768       -6.26356379935919
H           20.66522108297657       -3.01722199440885       -6.05144685260100
H           21.46826696658886       -3.63097409332930       -8.35464854426649
H           20.10702518653511       -4.69628974013739       -8.55276225901637
H           20.89187555444344       -6.08462164762689       -6.60657363391154
H           22.22919218289806       -4.99816177510683       -6.35831302222788
H           23.09936216419431       -5.54034388536829       -8.66411495127136
H           21.77031934869127       -6.63788529050573       -8.90696407646684
H           22.54495008361291       -8.01708498039268       -6.94500560902898
H           23.86293696158818       -6.91077216775324       -6.68204050074751
H           24.76470484409748       -7.43314056313240       -8.97819775691098
H           23.44689253680110       -8.53763102234447       -9.24696923412514
H           24.20271093707118       -9.92355638994397       -7.28295442758168
H           25.51558795305273       -8.81376737852154       -7.00241936013227
H           25.14067411933109      -10.46728289392859       -9.56771063480248
H           26.32276373141438      -10.80181889797178       -8.30528753144426
H           26.46298186894505       -9.34583100124022       -9.28645324525140
H           17.70613222982707       -2.60089071148322       -9.48960037338912
H           15.28390457147861       -2.80780955217564       -9.50164838604880
H           13.37341325074149       -3.05728237170311       -9.48761693206782
H           10.94574176775316       -3.23298866512988       -9.45148945638290
H            9.72427277440920       -3.11036186991541       -7.32842645816003
