70
 energy: -9.221209734378 gnorm: 0.000727758637 xtb: 6.5.0 (97a52f5)
C            0.79081783376368       -0.59721048235073        0.24677731082039
C            2.29054518571847       -0.38692631641072        0.10667324354199
C            2.83679096795894        0.67394843740079        1.06479144810041
C            4.34514095834385        0.88660645586477        0.92716568104315
C            4.89389661088568        1.95243435389181        1.87745190497200
C            6.40221372132521        2.16014855659900        1.73318012485153
C            6.95853965680994        3.23299706964277        2.67057352595162
C            8.45874072605526        3.43577396798465        2.51620938998339
N            8.97669828447292        4.48797324603897        3.41096296502393
C            8.99981150202279        5.79427301029480        2.99100007383380
C            9.48967947753089        6.77239430941085        3.79530390255879
C            9.98717524109836        6.47655597874683        5.08641982858578
C           10.55307188881757        7.49964587562685        5.93422150709293
C           11.08956332425254        7.19944749124734        7.20895572575195
C           11.65456908798945        8.16605938795354        7.97779103518365
N           11.72328404027536        9.46321632957740        7.53352165009845
C           12.34676509961928       10.50601811639953        8.37046967181776
C           11.32060279656792       11.28946209428398        9.17614503123804
C           11.94249861142482       12.41812036758792        9.99997751856654
C           10.91471897472645       13.21872587729978       10.80135106089433
C           11.53907420772193       14.36802480153654       11.59478210824279
C           10.51524507716593       15.17297489246682       12.39697172927824
C           11.14039881718499       16.33109996300964       13.17788200816000
C           10.11958175914883       17.12818167612876       13.97529962427754
C           11.19410808798816        9.79643578930401        6.31189662574839
C           10.62163756615607        8.85177625098550        5.52245515379668
C            9.92263642516815        5.12269678565137        5.49271687496588
C            9.42689950499655        4.16549529217262        4.66676849109341
H            0.41880037852201       -1.35586417455583       -0.44423565384202
H            0.24365926384280        0.32516616042456        0.04787432148114
H            0.53070394796622       -0.91639002767877        1.25683602611531
H            2.53509087214503       -0.10281897203381       -0.92451464203722
H            2.81975183349416       -1.33310062601168        0.27530207719225
H            2.59803368792917        0.39409593518569        2.09705824490154
H            2.31550196092443        1.62309445129767        0.89666684193795
H            4.58342432041419        1.16057396962832       -0.10678568491279
H            4.86626289612319       -0.06179739156793        1.09997544192460
H            4.65754815020482        1.67985337390574        2.91218367369010
H            4.37430133010517        2.90155658505495        1.70408310079746
H            6.63729700193925        2.42396119849466        0.69581104392649
H            6.92151299815203        1.21195599971703        1.91253646011417
H            6.73132672148948        2.97386235949203        3.71048080382215
H            6.44396270888775        4.18386671349689        2.49395977742505
H            8.70603042389515        3.70471855782176        1.48595715234861
H            8.99648762973333        2.50672107736648        2.72234734840598
H            8.62735530045300        6.02078422882912        2.00748619584431
H            9.50187879974317        7.78231564329868        3.43139286709823
H           11.06560811679318        6.19239421854790        7.58053295777375
H           12.06620425418824        7.93393601164500        8.94405104887617
H           12.91457735992507       11.17456720386337        7.71802860529191
H           13.07913714682952       10.03643057600406        9.03215563538305
H           10.77293715448990       10.60461314957282        9.83292576546476
H           10.56467927585423       11.70036495511400        8.49788655039912
H           12.49359411969980       13.09334648833038        9.33559775898259
H           12.69699911866456       12.00473139116067       10.67870796398428
H           10.37740136121374       12.54960043446733       11.48287470611258
H           10.14944976875147       13.61465932001861       10.12418726873053
H           12.07508203239644       15.03592660197711       10.91085309604973
H           12.30640466130480       13.97320465676963       12.27031398619336
H            9.98515075391822       14.50785176699560       13.08815859752621
H            9.74311755466006       15.56046816754710       11.72253878809384
H           11.67122445573848       16.99192498568990       12.48112726136750
H           11.91631920242819       15.93871892435457       13.84711617767953
H            9.35769982656247       17.55663177987354       13.32272615464027
H           10.58242823940139       17.94988928865380       14.52477841026189
H            9.60622239868561       16.49603609934076       14.70097712342567
H           11.24958334062746       10.82333640577615        5.99530735878984
H           10.22093607947922        9.14720175605619        4.57089359838854
H           10.27247814225507        4.83581939827367        6.46635946597418
H            9.38228997497065        3.13646177945561        4.97674110888863
