136
 energy: -26.575984029481 gnorm: 0.000442659028 xtb: 6.5.0 (97a52f5)
C            0.39740367365607        0.37380434591196       -0.15815737223481
C            1.89840995136257        0.18827928387905       -0.31831970581111
C            2.37997578212935       -1.18072315420646        0.16420317101213
C            3.88684426051605       -1.37830621959861        0.00117277269300
C            4.36529871874768       -2.74579572187012        0.48930036981382
C            5.86991220185688       -2.94296883371236        0.31728734635882
C            6.35906350120253       -4.31362944527575        0.78577618944659
C            7.86073533437068       -4.49319561831200        0.57449635210927
C            8.37625710983400       -5.84018252327740        0.98454268648609
C            8.38107665195730       -6.89436011319612        0.08375237155556
C            8.83954060616899       -8.13848097764228        0.45632836095135
C            9.30421928671524       -8.37094852666528        1.74911119422144
C            9.77026094921329       -9.71461727445715        2.15707627912919
C           10.49724120075948      -10.52388524728728        1.28468868791219
C           10.90679414799170      -11.78069837166070        1.66097581396609
C           10.61061342167202      -12.29211754278279        2.92817207823274
C           11.06666829937141      -13.62801216550371        3.27151761935228
C           10.89904457978359      -14.30964109853621        4.43456795756644
C           10.23929275280379      -13.76129424899157        5.54095268776360
N            9.69337824945134      -13.31538230047101        6.46522621130610
C           11.44985940205988      -15.66700161506465        4.60446010920178
C           11.68326723952430      -16.16517748348201        5.88754442689944
C           12.23474232915948      -17.40686274932624        6.08151436733675
C           12.57962761764440      -18.21237584661491        4.99670057412574
C           13.19421217091053      -19.54646884969024        5.22221063937602
C           12.43517300703918      -20.66328807973105        4.93482332667521
C           12.85421925503862      -21.94460877759581        5.28336469842430
C           14.02599435088298      -22.12156773473090        5.95322891443832
C           14.85419467705725      -21.02067137845580        6.26428956622681
C           16.05033083478180      -21.21044534077750        6.99087996873283
C           16.87050713942396      -20.16019918831400        7.26908758631687
C           16.56042779927189      -18.88741315064383        6.79720182907088
C           15.41340028416704      -18.64095268890442        6.06949766659780
C           15.26382697408051      -17.30279035669148        5.44091685485783
C           15.33759195474328      -17.16511504604426        4.05510060757112
C           15.18007817773093      -15.93770163343517        3.46129089800976
C           14.94144033974480      -14.79000794907386        4.21941475755869
C           14.72630227418138      -13.49586347543281        3.54596192547505
C           15.18873323871463      -13.38855534400501        2.22889698134756
N           15.57619526875391      -13.31343648664443        1.13556531809093
C           14.07340434586862      -12.48442251790925        4.17488083216460
C           13.75762015679103      -11.15677452301939        3.67773598610340
C           13.03158410399945      -10.28688895752431        4.49626407151810
C           12.70373175398660       -9.02019367928025        4.07725998917137
C           13.08811235426334       -8.55674102974379        2.81932863434660
C           12.74703038320717       -7.18745570730795        2.37535241813021
C           12.72302550863198       -6.13037872858262        3.28177447860767
C           12.39672574507943       -4.85664772164454        2.87347081908727
C           12.08279771189079       -4.58604493306033        1.54935298534861
C           11.71293010962714       -3.17882595836245        1.16327989122780
C           10.98754888801233       -3.02782290637295       -0.18041872677082
C           10.25461600497910       -1.69047445478237       -0.30612725087062
C            9.38331842038680       -1.58879833732519       -1.55913085674395
C            8.48464894955385       -0.35169049087317       -1.55582274201987
C            7.51877545561607       -0.30766456040357       -2.73957001168387
C            6.57718269397115        0.89682514812541       -2.69683653352685
C            5.59905324464936        0.92192602355029       -3.86080290437534
C           12.12125873547918       -5.63358215693649        0.63918885762939
C           12.44138921238007       -6.91186582531643        1.04393003088416
C           13.80962407071547       -9.42171302949649        1.99806303647759
C           14.13372112612388      -10.68859957098833        2.41675992058226
C           14.91556080558596      -14.92446978037558        5.61053034237794
C           15.08078572864144      -16.15186334844922        6.20788061037726
C           14.48147017447858      -19.71518826848006        5.84478925277863
C           12.29891160502670      -17.74339697920297        3.71295164855415
C           11.75377547035614      -16.49562391410202        3.52059940191255
C            9.88891068375306      -11.47214556111028        3.79849940030311
C            9.47896015672166      -10.21690645130824        3.42402844523376
C            9.29545836047336       -7.30776929163633        2.65036869886550
C            8.83754029477204       -6.06445297343124        2.27285889411326
H            0.06580584423255        1.35523310527863       -0.50411681027446
H            0.09702294636868        0.27497166416832        0.88648419061369
H           -0.15555446426704       -0.37804913942025       -0.72402317869889
H            2.43701070309552        0.97474659673251        0.22665561933888
H            2.18569200295292        0.32353857255577       -1.36934199237496
H            1.84493536704381       -1.97054781728834       -0.37683425070373
H            2.10261298051261       -1.31851316161836        1.21629809269647
H            4.42323669393954       -0.58710240869309        0.53876833768569
H            4.16419119478922       -1.24536029379326       -1.05156583957803
H            3.82670597842062       -3.53699565121410       -0.04609122837341
H            4.09372729315534       -2.87820831457926        1.54351319201348
H            6.40930362162031       -2.15556269359720        0.85753634540687
H            6.13859942084696       -2.79942378352763       -0.73620009733990
H            5.81546355933185       -5.10378472145441        0.25427642876566
H            6.11329348101611       -4.45816306019109        1.84449917421381
H            8.40334575114939       -3.71478876384662        1.12229536397247
H            8.09599447697913       -4.33077591837293       -0.48276583021875
H            8.01759532077299       -6.73025966890831       -0.91633522977573
H            8.82381134436971       -8.95090020473946       -0.24932504411325
H           10.75047393971263      -10.14553779483789        0.30952268553998
H           11.47291945964796      -12.38631331136757        0.97425843291709
H           11.63698856594194      -14.11633767919838        2.50225346944882
H           11.44002173159018      -15.54929803766225        6.73500040423287
H           12.42429879174735      -17.76869081480003        7.07748233774014
H           11.47478304006951      -20.52705712598690        4.46732523648805
H           12.23277400991543      -22.79323413428515        5.04812806805988
H           14.33700620484467      -23.10834090095697        6.25087509823186
H           16.30373839640552      -22.20086413651070        7.32831763683052
H           17.77788400033319      -20.31677120357057        7.82932259053671
H           17.24916696893512      -18.07659605037561        6.96360278687084
H           15.50267314435982      -18.04311074301602        3.45451195412906
H           15.22041952268229      -15.85212758292144        2.39001631076235
H           13.70430755058382      -12.68856145081007        5.16357673479441
H           12.71748333552673      -10.62628685560672        5.46839084885324
H           12.12517711494890       -8.37764758194602        4.71799041410874
H           12.97527748941162       -6.31529575038004        4.31145169209476
H           12.37984908933746       -4.05164483180991        3.58847384951567
H           12.61124807758731       -2.55118510733118        1.17517965362758
H           11.07080016508359       -2.77345158501494        1.95438912988473
H           10.26687329264678       -3.84429051547278       -0.29212714967594
H           11.69029366797967       -3.15485566366837       -1.01250712879825
H           10.97404966514266       -0.86336964131066       -0.27905638234227
H            9.62310801757117       -1.54393274958243        0.57871580001832
H            8.75833016715520       -2.48502567321425       -1.64385876719820
H           10.01258604996453       -1.59734219591462       -2.45712606823777
H            9.10079689230091        0.55531210070668       -1.54189649177531
H            7.91180649892485       -0.32047864804026       -0.62098932047684
H            6.92853773098795       -1.23164607246845       -2.76627504284122
H            8.08451613761709       -0.30411979574360       -3.67904041079617
H            7.17066995875446        1.82050486743373       -2.68056133662858
H            6.02999178965560        0.89463537515380       -1.74475065926457
H            6.12450992721149        0.95704571741129       -4.81687762904265
H            4.93386062643358        1.78729767112064       -3.81919566565369
H            4.97381729757779        0.02715407105395       -3.86990151466589
H           11.89049512433875       -5.44746058137506       -0.39499975146153
H           12.43532783512284       -7.71740117330290        0.33044164994208
H           14.12493925571531       -9.08057408520421        1.02725379841780
H           14.68397491052223      -11.32920528091655        1.75561473636920
H           14.77760102404960      -14.05384091297663        6.22658787967854
H           15.04707805229753      -16.24288923936920        7.27990818608610
H           12.53801097494415      -18.36737372401158        2.86906860784025
H           11.54616331451296      -16.15987318089557        2.52022332695920
H            9.65021927382612      -11.82303731672071        4.78328587278468
H            8.91190280819197       -9.61036013693804        4.10886350669991
H            9.66915867636097       -7.46289854575963        3.64750752211773
H            8.84004964584973       -5.25071691498088        2.97775414605100
