112
 energy: -21.565456759665 gnorm: 0.000727949011 xtb: 6.5.0 (97a52f5)
C            0.96101191326176        0.42788124719108       -0.48384359379876
C            2.31972064498181        0.93790815990853       -0.02901190732493
C            3.17361956022079        1.46256451554718       -1.18479598018475
C            4.53930505657575        1.98161825166144       -0.73412429070214
C            5.39585075581382        2.49404920261519       -1.89192718521260
C            6.75930601804668        3.01860816484839       -1.44208552972544
C            7.61631530821131        3.52131881020245       -2.60226477542895
C            8.96967223092553        4.05491555226673       -2.16314829099318
N            9.76347970588732        4.50728400728807       -3.29549240126170
C           10.70268546833019        3.70088640698250       -3.95524804160620
O           11.06559672790327        2.58421038305300       -3.64251895255872
C           11.14724924423011        4.48353289381645       -5.12043415323761
C           12.04619453929337        4.18772525370514       -6.10115793750605
C           12.27057665947667        5.12443020711523       -7.14433454747533
C           13.15638514569513        4.83581220919639       -8.17870084411573
C           13.37282468658116        5.72611066943458       -9.22673280186253
C           14.27749584315778        5.40591403881617      -10.27317461489021
C           14.47252356214515        6.29922416042254      -11.28382925546223
C           15.32424528052150        6.22591092537238      -12.48232869811257
O           16.05149417823091        5.30786133559887      -12.80627476108674
N           15.11566302421945        7.43079338346856      -13.16981567832649
C           15.71931335908884        7.73255740873225      -14.46107024533775
C           16.39224186865321        9.09517957050707      -14.49055739525585
C           17.00324192343954        9.42974468467546      -15.85024809610856
C           17.62864204811589       10.82309706698627      -15.90193524855644
C           18.23372228064670       11.15327313232238      -17.26669938014497
C           18.84074444371225       12.55466551132040      -17.33063300084444
C           19.43326738694617       12.88846480235504      -18.70117962387131
C           20.02205510694424       14.28913079620247      -18.76373662448557
C           14.19629359323472        8.26489358872895      -12.51522512034598
O           13.80412512082719        9.35934711354091      -12.86953264876049
C           13.79328918520818        7.53711838370689      -11.30250954850454
C           12.92157079216702        7.88096991953950      -10.31006084386247
C           12.67492559972975        6.98050665658846       -9.24609482316681
C           11.77261441838211        7.30538415872250       -8.19756969124324
C           11.05747678390389        8.60360429059048       -8.19831942702163
C           11.22189863417806        9.51708453610703       -7.14920742872066
C           10.56327512399511       10.71860507021833       -7.14956862892721
C            9.70811782987678       11.06875035493955       -8.19626099123183
N            9.02541616534999       12.32105288128784       -8.19532297852007
C            9.59359027153898       13.45977669489262       -7.52824827819819
C           10.95719099783370       13.73036884717421       -7.61307188586250
C           11.49525384980793       14.82661565067215       -6.97833070094726
C           10.68337707191372       15.67323273932181       -6.24926205318629
C            9.32858807576249       15.42087336895886       -6.15906893753301
C            8.78767874487408       14.32571817492018       -6.79323553940275
C            7.75910277150954       12.46491527940879       -8.85804321371002
C            6.79687353778078       11.46036409305498       -8.78778773134700
C            5.58123486764497       11.60813003392493       -9.41601812759525
C            5.30260746941445       12.76116110991119      -10.12332692779554
C            6.24477877651981       13.76805162093355      -10.19915771537377
C            7.46124909423351       13.62299537533702       -9.57208081498139
C            9.54054230797834       10.16038292109546       -9.24337474667977
C           10.19724781595787        8.95755286166660       -9.24569273086857
C           11.56269016475435        6.37322029339824       -7.14593733928311
C           10.63376970141588        6.63187916071000       -6.10955092933972
C           10.43876416105214        5.70550783312087       -5.12627013497126
C            9.53389688169601        5.71731437429874       -3.96704079821595
O            8.74241785230228        6.58956450619724       -3.66715665261543
H            0.36432233119616        0.05187484346346        0.34979431601297
H            1.06624591992060       -0.38402614603599       -1.20523418402649
H            0.38592887938384        1.21786545270559       -0.96955333909833
H            2.86639055005464        0.14146526882485        0.49232214259159
H            2.19377710768965        1.73226661404853        0.71801156696670
H            2.63261019579510        2.25873120371106       -1.71003062662238
H            3.30925304767978        0.67020902606064       -1.93059632974167
H            5.07732835644029        1.18803039099755       -0.20212115586249
H            4.40399120485131        2.78010120680250        0.00505386693481
H            4.85622384234473        3.28437796364701       -2.42707728518658
H            5.53458366540371        1.69392834092270       -2.62866396650580
H            7.29726229614367        2.23049743052057       -0.90206863622704
H            6.62117757144308        3.82367438914279       -0.71073720329050
H            7.08070111094721        4.30630860099040       -3.14876049867186
H            7.76513628874012        2.71636288005507       -3.33127936270009
H            9.53679318079661        3.28417023832345       -1.63223405906553
H            8.85005371701506        4.89313150670775       -1.47005442051998
H           12.56729022138155        3.24830301300869       -6.08762038367480
H           13.68171909662754        3.89801562757211       -8.17140986138205
H           14.80283492480017        4.46877523790491      -10.27443184741435
H           14.93675507885172        7.67379651704062      -15.22350924895812
H           16.43986873741770        6.94216548013616      -14.69370297545622
H           17.16166026900068        9.14059177869215      -13.71133063825193
H           15.65936753223780        9.86182930812184      -14.21344184692489
H           16.23464080303036        9.34512246836150      -16.62767870473337
H           17.75669039900702        8.67695799782609      -16.11086908493067
H           18.39785153147925       10.91191414592085      -15.12558546245676
H           16.87307856499619       11.57455198708898      -15.64318711702600
H           17.46585740192736       11.05043444117000      -18.04279837676899
H           18.99775840393706       10.40880868454342      -17.52073400225618
H           19.61393562532233       12.65716398473148      -16.55982897966041
H           18.07748865520485       13.29757388859816      -17.06969619809149
H           18.65748796534271       12.77101486880473      -19.46897145626062
H           20.19963983077670       12.14479818813431      -18.95565605136555
H           19.26603803534571       15.04433087880818      -18.54317434261488
H           20.43627406195555       14.51580778984159      -19.74819820919036
H           20.82329760476455       14.41307913930325      -18.03359168143329
H           12.43245548111098        8.83574045643597      -10.34594655561822
H           11.88679345262879        9.26411692052409       -6.34135937261252
H           10.68894562443368       11.40442579800524       -6.33052999200552
H           11.58224455964044       13.07445112778883       -8.19327024266253
H           12.55189100755893       15.02529381649363       -7.05130546778449
H           11.10579441245632       16.53103370257069       -5.75229331954558
H            8.69444206809418       16.08196384667812       -5.59153418427497
H            7.73399433919432       14.12015134063585       -6.72306932468254
H            7.01400860151561       10.57030889457020       -8.22370728738173
H            4.84491489070915       10.82370102725139       -9.35429348114939
H            4.35039038214290       12.87559630461764      -10.61467533512389
H            6.02767244934587       14.66830545837452      -10.75026747556548
H            8.20194995423321       14.40096130067959       -9.63212155849203
H            8.89497983244100       10.42540309408913      -10.06187323991684
H           10.05057454537027        8.26195095165929      -10.05397772500574
H           10.06560275789599        7.54260667860674       -6.09666855073541
