48
 energy: -8.797796342042 gnorm: 0.000475681551 xtb: 6.5.0 (97a52f5)
C            0.85852858819547        0.10848579629821       -0.13715490846410
C            2.37309264802707       -0.02107720157142       -0.08931579347459
C            2.90428664150554       -0.25373635183720        1.32608291392757
C            4.42684982583541       -0.38223611504295        1.38085181240262
C            4.95602889236646       -0.62973609305953        2.79342276767539
C            6.47670503592427       -0.77507686278573        2.84556040458000
C            7.00118989880083       -1.04615557919407        4.25455290847985
C            8.51097105764685       -1.23072896295136        4.30446534551815
N            8.99182027544131       -1.53575865937724        5.66590256175294
C            9.38749221507696       -0.47955753765265        6.51341153860652
C            9.22502000465134        0.86569644800710        6.15668180797094
C            9.64514660943292        1.87712789142599        6.98358152830182
C           10.23971635125518        1.58328009903132        8.20001858096208
C           10.39754250442502        0.27463412212716        8.58182982333745
C            9.97415017834649       -0.76555107772455        7.76075857157174
C           10.13570685301710       -2.14844933148100        8.20592129974916
O           10.67571467510964       -2.41411483925648        9.27171868046823
C            9.61429798411727       -3.20079366154972        7.33584995899307
C            9.67840908291301       -4.52822545659458        7.74749559315618
C            9.18396438799292       -5.53625592583195        6.95834776193063
C            8.60799432789253       -5.23136340752441        5.73572776061191
C            8.53738840204913       -3.92875555690319        5.31012454035383
C            9.04313363999036       -2.88023454945794        6.08998300612889
H            0.49271222674101        0.27257245909668       -1.15301694103853
H            0.51470839566175        0.94427368360708        0.47459852845126
H            0.37332476379376       -0.79127418777777        0.24508376636509
H            2.84269632272698        0.87831409346806       -0.50884394192641
H            2.70249180339141       -0.84247514309710       -0.73912439109951
H            2.44374029739334       -1.15529319160482        1.74779619153450
H            2.57993266850442        0.56419944288426        1.98057972786296
H            4.88855651862668        0.52259263150044        0.96769266459681
H            4.75090304260117       -1.19499172040425        0.71978671455985
H            4.48718283182356       -1.53013599349135        3.20842320273883
H            4.64046591287321        0.18635223002204        3.45446693999141
H            6.94914025903009        0.12897221599599        2.44301819080886
H            6.79117586982651       -1.58400208245894        2.17521795633831
H            6.51120184736040       -1.93592441934531        4.66637821752197
H            6.70792633470505       -0.23047149968049        4.92546673998110
H            9.02562344807360       -0.34358246452138        3.92677912291150
H            8.82819187801427       -2.02796525635470        3.62702610336267
H            8.74660222204289        1.11886790787843        5.22826218946074
H            9.51168268380596        2.90479741131147        6.68713827494574
H           10.57222871651474        2.38000177814354        8.84509335316588
H           10.84991962546626        0.03236534231158        9.52806289406603
H           10.12216546076370       -4.75034413699093        8.70267862065250
H            9.23895890603623       -6.56049837456546        7.28905699377857
H            8.21185173767824       -6.02135877101452        5.11870465965626
H            8.06677614653469       -3.71461914201369        4.36804575677472
