100
 energy: -18.385462873105 gnorm: 0.000638230818 xtb: 6.5.0 (97a52f5)
C            1.26832185995678        1.27234880069680        1.52984570676848
C            2.68757597190768        1.05542798590766        2.03154060741427
C            3.13593504093013       -0.40041597596988        1.91038456900485
C            4.57259796789138       -0.63703664703031        2.37661252699892
C            5.00278915943330       -2.09073200614857        2.19445393940142
C            6.47514785780045       -2.34520363151340        2.50179076908693
C            6.89163029386269       -3.79767357323886        2.26779513250189
N            8.34880844053765       -3.96207704565897        2.14886466579731
C            9.03948999526094       -4.50060415212202        1.07473366206969
C            8.56113382808173       -5.05756230668690       -0.10734996148922
C            7.33849791008716       -4.83908428724768       -0.77557396281215
C            6.60030994967467       -5.72498652718964       -1.67424056457282
O            6.76049295328717       -6.86456049025204       -2.09115646481132
C            5.58410003782953       -4.69216393753386       -1.85241526232017
C            4.43085629778903       -4.63131071771324       -2.66574072018668
C            3.28521162417441       -3.89206507763226       -2.39207522340510
N            2.79630873639837       -3.55941136312916       -1.14285777044653
C            3.23305220197689       -4.19705361462651        0.10700452115460
C            2.77094748556729       -5.64015920391904        0.21562722715530
C            3.28735735843537       -6.32563206191398        1.47963058459626
C            2.86059900517672       -7.78891177150960        1.58629526252635
C            3.36993329861729       -8.46578313067727        2.85896680064400
C            2.94333126240985       -9.93012159286151        2.97241661664862
C            3.44195677328213      -10.59177647564183        4.24789565900620
C            1.55438724422660       -2.87697892092502       -1.23019358412257
C            0.73627836406964       -2.36279401294160       -0.23174108727809
C           -0.43423310625354       -1.72912835627249       -0.59121709420226
C           -0.79487292670677       -1.60994307370142       -1.92496495785417
C            0.01157687490929       -2.12850471718460       -2.92331988696776
C            1.18538074822794       -2.76108059535971       -2.57181201680365
C            2.24629920502607       -3.44610958140842       -3.42856505294799
C            1.64625617686500       -4.65429001204761       -4.15963792739014
C            2.87438678900442       -2.45424535705652       -4.41487844575521
C            6.37736683119419       -3.78405850786361       -1.04096100531300
C            6.40788900461929       -2.39002477100885       -0.90259479320043
C            7.53515304412127       -1.74222144095726       -0.42983432907387
N            8.47997497048996       -1.16357790840816       -0.06472797486172
C            5.42857845912566       -1.56964136162881       -1.43275223868744
N            4.64616353201099       -0.83439622590173       -1.88902870378616
C           10.51425894870378       -4.60082477923125        1.49272437805131
C           10.99767950604182       -6.05901545141254        1.49349293297885
C           11.38352539729445       -3.73149735175177        0.57529234951593
C           10.51338163602391       -4.05003109562020        2.91216027505358
C           11.54270734454328       -3.90623220221494        3.81886231664681
C           11.25555824046658       -3.43486430424264        5.08758026958702
C            9.95233681753824       -3.12710158587604        5.44620833137322
C            8.91933893640551       -3.27057219458769        4.54383714570164
C            9.20306910135902       -3.71883667248098        3.25865713749268
H            0.95707303706812        2.31543566359500        1.61649400229023
H            0.55468819372435        0.66822714615736        2.09250580190107
H            1.17406739440024        0.98709398689301        0.48063489721423
H            2.77421369552953        1.37681711209681        3.07766503297339
H            3.38555413783615        1.69671549240215        1.47764151020133
H            3.03503082445164       -0.72615298228930        0.86791987221891
H            2.45415760521057       -1.04494406254650        2.47798031774958
H            4.68343355297268       -0.34046875075290        3.42615576911726
H            5.25100818522070        0.01864872493276        1.81816047351062
H            4.80417174949503       -2.38023230639710        1.15834415021816
H            4.37476029256520       -2.74758579109893        2.80796546990009
H            6.69549656871727       -2.03697882475479        3.52850730898082
H            7.09729706081691       -1.69383761364781        1.87995487537994
H            6.43044034497640       -4.17997907694648        1.35630998155997
H            6.52828668004815       -4.44286463897311        3.07308250870201
H            9.19880255592584       -5.79419662793637       -0.57018572966307
H            4.44046564798558       -5.22179439740502       -3.56827720636817
H            2.86460883214434       -3.61353392005935        0.95382642981752
H            4.32121937536144       -4.15356068435803        0.15593101657463
H            3.10278152185887       -6.19604562979290       -0.66897938305356
H            1.67595638449643       -5.67972115888496        0.18408832700254
H            2.94317110893233       -5.77469737061066        2.36309352753537
H            4.38167358740620       -6.25952137870267        1.51100127219697
H            3.21554312255356       -8.34069327849206        0.70771077983937
H            1.76707485618501       -7.85732451169079        1.54438591972391
H            3.01705768732728       -7.91100584660216        3.73649191767307
H            4.46359307718251       -8.39702847410753        2.89965104502615
H            3.30404723411456      -10.48164636402975        2.09432803773059
H            1.84865946006159       -9.99351636365102        2.91767713232029
H            4.53142995828616      -10.56817934079561        4.30510182445266
H            3.13165743937342      -11.63651659047664        4.31570553690767
H            3.06218139721784      -10.07806185685409        5.13266646678894
H            1.01578536835575       -2.46074781729219        0.80146944077085
H           -1.07633701592654       -1.32275081474071        0.17296057315978
H           -1.71377951757864       -1.11177865271813       -2.18699619607021
H           -0.26468039052392       -2.04732785410304       -3.95993617235504
H            1.22777085550956       -5.36335277297241       -3.44633686088226
H            2.40140683502555       -5.17216885745966       -4.74913523447393
H            0.84888880592687       -4.34256033675997       -4.83306311430163
H            3.30296928717912       -1.60980556746424       -3.87714675310928
H            2.13078091940596       -2.07269320485125       -5.11320072329092
H            3.67059481592772       -2.92712948585370       -4.98828873005508
H           11.00802274621681       -6.47494193180424        0.48733219050630
H           10.34731498381714       -6.67747365260936        2.11085870723041
H           12.00851898653965       -6.13061526269151        1.89286735502543
H           11.34142517589774       -4.08790372362332       -0.45310884949258
H           12.42386162410471       -3.74212955250150        0.89765348801212
H           11.03386752509555       -2.70030921813325        0.58894674957900
H           12.54793736903442       -4.16613350944220        3.53688566702538
H           12.05049624067654       -3.31725191170667        5.80554361051015
H            9.74304407246164       -2.77719282734960        6.44386699935431
H            7.90573228280217       -3.06892405975066        4.83709461013003
