92
 energy: -17.107629777623 gnorm: 0.000514919011 xtb: 6.5.0 (97a52f5)
C            1.88749503953200        0.78269862794968        0.92009791591476
C            3.28910506702439        1.02848418360046        0.38293471539017
C            3.63190865485582        0.12892880239199       -0.80497305640746
C            5.04525494509221        0.35186735515783       -1.34498138653720
C            5.38898040761976       -0.59800730849603       -2.49086510853797
C            6.83020272750029       -0.47384584458620       -2.97880757880750
C            7.18258020925976       -1.47564350564174       -4.07911989400602
N            8.63786102525913       -1.71629912898426       -4.14455851101545
C            9.30463168495347       -2.33071573262083       -3.11643696075768
C            8.73714572998711       -3.00676346439828       -2.01601359098228
C            7.52668021695713       -3.70525132342519       -1.99971304092077
C            6.59025107216656       -3.97015214979324       -0.90754493757854
O            6.52340874612629       -3.64963839438787        0.27259276674298
C            5.74642859311913       -4.73735093346655       -1.81160595031430
C            4.48639453922065       -5.33996311343772       -1.51184944311459
C            3.32678419005588       -5.39876636439274       -2.25568226384859
N            2.13242892175097       -5.90803327482479       -1.73567722556944
C            1.96799845656732       -6.34634905032892       -0.34099076547829
C            1.80512777328630       -5.15650025941119        0.59475503376439
C            1.74523793027198       -5.54048455546702        2.07186467736485
C            1.63917446218565       -4.32250260329515        2.99011582116861
C            1.61182910515860       -4.68474354615780        4.47470120680048
C            1.52512340125834       -3.45877410327161        5.38576099133671
C            1.51049684423425       -3.81993104431034        6.86295014227542
C            1.00974515880721       -5.56279446956619       -2.52529854479954
C           -0.34339998377635       -5.81181596523767       -2.32806430895450
C           -1.25044509954804       -5.31916136744194       -3.24196397915573
C           -0.82396979988814       -4.58290722930792       -4.33701460769160
C            0.52193524396631       -4.32583877864861       -4.53308687790110
C            1.43545513000022       -4.81628669047028       -3.62365941440117
C            2.95650370487303       -4.68056502875782       -3.56967785484846
C            3.56305072370290       -5.35782665939074       -4.80099362817469
C            3.35188295289017       -3.20253361356836       -3.51682863321083
C            6.72010762311940       -4.55947393342696       -2.87044037948718
C            7.01551553695853       -5.26486795816231       -4.04824380426111
C            8.11858342466556       -4.98017890023187       -4.83274305291268
N            9.04310364490303       -4.79841082550465       -5.51984939559690
C            6.37119280108668       -6.45150899223944       -4.35435928851943
N            5.85891841868443       -7.46625445944793       -4.61508015303466
S           11.02286388919354       -2.03968853820766       -3.28001142463610
C           10.80786048849208       -1.11751046742517       -4.75746166008863
C           11.76727337528577       -0.51143909961600       -5.55123298905292
C           11.37093948493325        0.18776849885615       -6.66990250774271
C           10.02340929561128        0.28556052256857       -6.99924523988886
C            9.06311017631635       -0.31451317106139       -6.21856654547187
C            9.45268848207431       -1.03106209322059       -5.08333335142475
H            1.65616528965345        1.42518226998800        1.77217392851994
H            1.76643979353910       -0.25150282539217        1.24628799177033
H            1.13330353968397        0.96824210606993        0.15361629321790
H            4.02976842544557        0.87468305601679        1.17854997782413
H            3.40265016547073        2.07951493900511        0.08733026444375
H            2.90174010278206        0.28276948588161       -1.60839809732981
H            3.51496444769147       -0.92121916857924       -0.51152462616038
H            5.77075956430757        0.22264541158654       -0.53299441135530
H            5.16226398156006        1.39133869887291       -1.67293405133308
H            4.69732055028335       -0.44264865314086       -3.32709268775463
H            5.21677765196928       -1.62603079553961       -2.15303664853304
H            7.50594641218606       -0.62759735992218       -2.12945189242063
H            7.03480952027476        0.54810256876300       -3.31843471077382
H            6.80708378825967       -1.14646193755009       -5.05065667933602
H            6.69514604898878       -2.43363381954536       -3.89461169602469
H            9.25217685583634       -2.90718535241257       -1.07231459795928
H            4.39301929016789       -5.65356473727478       -0.48553613370017
H            2.82827197571285       -6.95776593953769       -0.05647419010038
H            1.10334391670447       -7.01203419938482       -0.27671382776657
H            0.90490454876099       -4.59561924649986        0.31764649768434
H            2.63064465334021       -4.45394576636405        0.43366089273263
H            2.63562597645206       -6.12316761334624        2.33622404463877
H            0.89826415633356       -6.21437297873620        2.24659208974814
H            0.74197731495820       -3.74644569008095        2.73465154994098
H            2.47863208949750       -3.64450308513785        2.79527796561447
H            2.50557760718351       -5.26760785374486        4.72726400427947
H            0.76747804053575       -5.35471432593788        4.67558942183090
H            0.62823256845866       -2.87983461214340        5.12958072316935
H            2.36706316526280       -2.78793324562858        5.17030520640903
H            0.65914231522487       -4.45826954923410        7.10431813661940
H            1.44938159424921       -2.93536890755205        7.50033487393117
H            2.41258255415746       -4.36571560099500        7.14406564665285
H           -0.67014101440749       -6.37874193396178       -1.47511152972881
H           -2.30253133100625       -5.50700393561364       -3.10327771383759
H           -1.54672306283084       -4.20444151316949       -5.04094727514101
H            0.85881551964366       -3.75041963974991       -5.37735273180575
H            3.42427389438066       -6.43684986461442       -4.75731396698408
H            4.62573733828420       -5.14661221343781       -4.87143846103032
H            3.09765510672356       -4.99167618299450       -5.71528808664897
H            4.43443224298933       -3.10302699350514       -3.49190625189173
H            2.93837969303987       -2.72551822503597       -2.62919967907589
H            2.98586597753721       -2.66822360859076       -4.39256167537282
H           12.80639176840159       -0.59101614596421       -5.28243161690628
H           12.10973383050567        0.66366169802538       -7.29337390846549
H            9.72923853102704        0.83707679712754       -7.87714925974483
H            8.02363918725730       -0.24098768521309       -6.48114888782376
