122
 energy: -20.911009245279 gnorm: 0.000942249843 xtb: 6.5.0 (97a52f5)
C            0.61409503990536       -4.82418905815497        0.11654955300301
C            1.82736438193790       -3.91418368690061        0.00223616601088
C            3.14467992716794       -4.68817288962330       -0.07288587044233
C            4.36828520414308       -3.77937727605879       -0.19472815153356
C            5.68455010792764       -4.55375288218191       -0.26847924187946
C            6.90703461800074       -3.64411626382271       -0.38733949388289
C            8.22513145120126       -4.41093272430755       -0.44747140185542
C            9.39387232849666       -3.49628906960791       -0.57569761256300
C           10.47169747881080       -3.43214889564193        0.28955267845619
C           11.31130692784975       -2.44243868391669       -0.18549926571245
C           10.72790167938459       -1.91849039072224       -1.33359049236437
C           11.26543453670415       -0.85540993567963       -2.15812112056055
N           12.36899754709199       -0.11961694675156       -1.97290493964256
C           12.56786381688356        0.79477086697046       -3.02151212958890
C           13.65760860127228        1.70010421489184       -3.04676176399131
C           13.98886325782976        2.67248878924270       -4.02277933842981
C           13.38814755261170        2.99274770496391       -5.23514764614213
C           14.08236520189199        4.07713498376504       -5.79906611694684
O           13.86460412987916        4.72261187712243       -6.98084261383011
C           12.66286269661190        4.33799362282975       -7.63650562335683
C           11.40039457462561        4.89048393180344       -6.96026338074139
C           11.39176334806438        6.42881480639106       -6.98482621570828
C           12.51488993933393        7.06251581589203       -6.17949013728014
C           10.13734017212809        4.28810520418647       -7.60595681561235
C            8.86097042131457        4.54303373082337       -6.81933180216959
C           15.14819484863663        4.42804119141611       -4.88151570354726
C           16.03418832610754        5.56518168420654       -5.03790614055537
C           17.20618263528731        5.79461603392863       -4.32628671402488
C           17.72322060799282        6.99990501571435       -4.76184609675625
C           16.86104783955637        7.48227197336888       -5.73034995800031
C           16.99849652493588        8.78316697998735       -6.44149620861341
C           16.25837765721894        9.90662208767112       -5.72018445968372
C           16.36083536867105       11.25477499757762       -6.43206387055350
C           15.62583233891971       12.37324276056444       -5.69298440921620
C           15.73536716985375       13.72863123889867       -6.39163472234799
C           15.01381672327263       14.84895337039679       -5.64031517185154
C           15.12537691295305       16.19531878437106       -6.33865877638294
O           15.82405167123702        6.60927303386531       -5.90859575652072
N           15.06256734884625        3.56465403342414       -3.86163334535623
B           16.01001941058390        3.53072697255080       -2.63473208037312
F           15.95981384726399        4.75752468923563       -1.99011453889636
F           17.28973527136696        3.20683612084656       -3.06221024792514
N           15.56515399811403        2.44472589427949       -1.63108567038412
N           16.07777469914052        2.14070587015027       -0.47209396269258
N           15.36159596317388        1.14121779353476        0.02843448176989
N           14.42368719341634        0.86452890963664       -0.83293484719961
C           14.49197941825846        1.66055161674973       -1.93839018225884
B           13.32123124820434       -0.21365410739712       -0.75271334857054
F           13.94251638852526       -1.45383304653229       -0.75825075770998
F           12.59327362108606        0.01082295147647        0.40666550382265
C           11.51077086003187        0.61669615495894       -3.90619276076429
C           10.68029416530234       -0.39980273470103       -3.40384622927434
O            9.53298816740313       -0.91372143641126       -3.93307041590248
C            9.24573186977133       -0.45203394862272       -5.24729393001383
C           10.17097271072515       -1.05086597663908       -6.31651785057529
C            9.99000503991124       -2.57545364137475       -6.41121844793225
C           10.37197843814177       -3.31859390954461       -5.14107663257393
C            9.95212601414066       -0.35033378937840       -7.67152472278942
C           11.01580141374488       -0.67069123207894       -8.71025336933449
O            9.54595417042051       -2.57872269735999       -1.57683775444628
H           -0.31837521612820       -4.25872611717602        0.17102076530242
H            0.67245100504590       -5.44862887555004        1.00942715725944
H            0.54197409090041       -5.49460986916969       -0.74130846421945
H            1.86171215749718       -3.22262395935367        0.85402444215509
H            1.73430829277604       -3.27110205884017       -0.88248440511992
H            3.11576878734674       -5.38130665672158       -0.92186699515231
H            3.24706945289559       -5.32607395451211        0.81294197838957
H            4.39699563988768       -3.08593132571868        0.65404025484403
H            4.26656674612188       -3.14209121187361       -1.08104071298754
H            5.65746284061009       -5.24650352420764       -1.11776084171819
H            5.78596532028622       -5.19132242934039        0.61764579735926
H            6.93125665525557       -2.94413581672279        0.45633694352910
H            6.81545882614127       -3.01166740636054       -1.27859844914719
H            8.21864163110286       -5.10172593181218       -1.29700608287130
H            8.34007112813574       -5.03398387154603        0.44588588639175
H           10.62126723144147       -4.03992457482189        1.16576382398853
H           12.24654446805822       -2.12983406099177        0.24287971340404
H           12.55012585072567        2.49102185944247       -5.67742220681278
H           12.64175691492924        3.24571094730648       -7.71056643082738
H           12.72557424006852        4.71366155810394       -8.66336017951344
H           11.42103125451453        4.57811338006224       -5.90539393744845
H           10.42744369384761        6.79459851497304       -6.61318022025407
H           11.44111547719083        6.76134415584870       -8.02845074299323
H           12.47057005415871        6.75672017056502       -5.13322596534512
H           12.47585543293012        8.15318683494658       -6.20686418577096
H           13.49269041976635        6.76044534667377       -6.55767724980208
H           10.28297559507830        3.20726431781665       -7.72521425458609
H           10.04209552918040        4.67752850548571       -8.62635546817974
H            8.94815787999282        4.17235278619838       -5.79684609393853
H            7.99870941631897        4.05032604440065       -7.27338145331447
H            8.62792841373302        5.60643762168312       -6.75916989796074
H           17.61727477022432        5.15068525746780       -3.56986315102906
H           18.61819734800220        7.48402373887297       -4.40940512450627
H           16.61075627113937        8.67226235802113       -7.45942275565963
H           18.05908121128563        9.03380022022895       -6.54940174224224
H           16.64350597429712        9.99890141522559       -4.69766348875934
H           15.20408015020483        9.62939364565019       -5.60236353128152
H           15.96731756232595       11.16469893423601       -7.45135730475105
H           17.41587727095084       11.52620983017897       -6.55520997986807
H           16.01507654423684       12.45479767426665       -4.67123020627315
H           14.56954309141097       12.10394913552896       -5.57519879962803
H           15.33628887950117       13.65132833378411       -7.40985807965955
H           16.79194760170922       13.99258570699813       -6.51816015049493
H           15.41589285793145       14.91840875971833       -4.62122701194788
H           13.95816838239502       14.57708802313137       -5.51138994515163
H           16.16816662793440       16.49738692249006       -6.44772101580462
H           14.61002176733217       16.98572672885284       -5.78919089430475
H           14.69456642374423       16.15662280354312       -7.34037832092976
H           11.33822063498966        1.17617731377575       -4.80438544095215
H            9.28031954248639        0.64243334999209       -5.24456364281361
H            8.20731351141213       -0.72556843907533       -5.46247559385006
H           11.20912061588365       -0.86221712597109       -6.00444098632316
H           10.58096229036284       -2.96177652051959       -7.24999060897235
H            8.94683734305576       -2.78765321918042       -6.67367890638995
H           11.41238152444748       -3.12974671868316       -4.87254366710157
H           10.24771439965317       -4.39849401571876       -5.24295157670984
H            9.76125714997504       -2.99667512218887       -4.29625071597132
H            9.91777801947055        0.73378375477427       -7.50668735214510
H            8.95706513527984       -0.61355155700722       -8.04898702151819
H           12.01333295405515       -0.43013473666113       -8.33940279096331
H           10.86535688271416       -0.10665774418294       -9.63307754608354
H           11.01580320841294       -1.72795959055623       -8.97666329829321
