122
 energy: -21.593103330356 gnorm: 0.000587063311 xtb: 6.5.0 (97a52f5)
C            2.64216738976841       -2.19094669864580       -0.45947124969394
C            3.76346078087083       -1.18173074885029       -0.65253005120872
C            4.08223353596262       -0.39990175509008        0.62274415002067
C            5.20635810711807        0.61904937013651        0.43601196829204
C            5.51938584595803        1.40077516756102        1.71158753977065
C            6.63344640721835        2.42411527060929        1.52051652375614
N            7.05515218988666        3.12073333346382        2.75539245224689
C            5.98343112962035        3.54979169080537        3.68000507377154
C            5.13756342384681        4.67800650221158        3.10701611660096
C            4.02590477622104        5.12861452642204        4.05356500039652
C            3.16360459973707        6.24850679131222        3.47172529055529
C            2.04552314898599        6.69482429748515        4.41506265823181
C            1.18724646777889        7.80462236684900        3.82791311775172
C            8.36969563752251        3.63689534288885        2.86841804642821
C            8.92573783299768        3.94875999217345        4.11455181881951
C           10.20817309155892        4.43220049393610        4.21874328605792
C           10.99578917622492        4.62929981932748        3.08612700729289
C           12.31846804592044        5.09793431273758        3.20213274854876
C           13.48145463085457        5.45622729224444        3.32605716394329
C           14.83509431663567        5.80927686545640        3.49709442439822
C           15.66275642191414        6.04175392330282        2.40117041004489
C           16.99384664559802        6.34865319460200        2.57366035863324
C           17.55144855932928        6.43422195951252        3.85044117314257
C           18.99080818781491        6.72231780003399        4.03858367607559
C           19.66798602115347        7.60996293764809        3.20091524827283
C           21.01198617564446        7.85756918559023        3.36981116468057
C           21.73317181543086        7.22900197402917        4.38228091715452
C           23.11185685636699        7.46457719249977        4.55497355211380
C           24.31274029266514        7.62930647834404        4.71928932478432
C           25.69856178239128        7.77372672556056        4.92259119979964
C           26.31937987705324        7.18268715906458        6.02113286369274
C           27.67462793070986        7.30062539153028        6.21635181593336
C           28.47640365104611        8.01339395657384        5.31797737203398
N           29.86989930594898        8.11172801941908        5.50350799674374
C           30.55368989542492        7.52121254788937        6.66815121313928
C           30.82449987674718        6.03365049699473        6.48890030935379
C           31.48954858463048        5.39507409055346        7.70731264246041
C           31.73704282258799        3.89665097221071        7.53411639836341
C           32.39669073660735        3.25245081738130        8.75438922822511
C           32.62699433076013        1.75922270481345        8.57949346167056
C           30.75934681954494        8.74542953998359        4.51265139778077
C           30.85370167604946       10.25376833332266        4.69398195773459
C           31.77949734790699       10.91898083700324        3.67622858903786
C           31.87982618618951       12.43349977319212        3.85787181250893
C           32.81710165859754       13.09647613565878        2.84702861239041
C           32.91203904259779       14.60323099335241        3.03069413997062
C           27.84550314534788        8.61228894539969        4.22178666555890
C           26.48927759389419        8.49452540293133        4.02990090868728
C           21.05891517227066        6.34608065585141        5.22198210697601
C           19.71589540199085        6.09754365372356        5.05429370159597
C           16.71595645346827        6.21389434795010        4.94643923706411
C           15.38563418364977        5.90710027697215        4.77261360141347
C           10.44621628658278        4.32680182388294        1.84188503361263
C            9.16473564999125        3.84150051089955        1.73437851944373
H            2.42390539797271       -2.74338620361271       -1.37645328640795
H            1.71909119622616       -1.70012889991026       -0.14473353622351
H            2.89645088540464       -2.92115042750026        0.31133242862382
H            3.50425202068742       -0.47719772707765       -1.45425014070283
H            4.67233410840858       -1.68857071139983       -1.00376525194515
H            4.34776172813148       -1.09800598146741        1.42622471095832
H            3.17817294495501        0.11037595388437        0.97736537461328
H            4.94160823200667        1.31720358426321       -0.36766582464477
H            6.11159600548085        0.10942815840860        0.08362620385410
H            5.79680858640933        0.70495472829865        2.51243261800447
H            4.60770281337622        1.89804630021238        2.06192094388348
H            6.33966564637115        3.17567056190176        0.78204257487012
H            7.50948155904753        1.91622510132034        1.10649404601721
H            6.42156353556426        3.86631025836186        4.62856579575801
H            5.36124227751220        2.68649821378482        3.93001229377558
H            4.70238475891167        4.36527555879743        2.15080382137531
H            5.78468660826334        5.52795557541360        2.85912472118844
H            4.46192069209607        5.45461818595852        5.00589952464312
H            3.39159726680277        4.27099510204805        4.30967438122117
H            2.73173650351715        5.92232473510663        2.51750630710033
H            3.79700779655777        7.10741625878258        3.21788016439877
H            2.48358035066146        7.01928293477497        5.36853908030607
H            1.42039133441039        5.82884543739738        4.67124469242323
H            1.78652367488353        8.68809249924654        3.59915299549094
H            0.39247876015852        8.11425405795021        4.51067623113103
H            0.71433899353591        7.48698402410061        2.89651908150845
H            8.35754785722693        3.76929181617315        5.00927028876838
H           10.62599870405962        4.65562517161557        5.18589187964614
H           15.24701864840939        5.96686786025843        1.41051206867215
H           17.62455550761473        6.50211199393296        1.71502161084552
H           19.12296366606359        8.11341160712863        2.42108122669002
H           21.52375229753474        8.54294117015982        2.71553613166581
H           25.71844307765009        6.62333635593747        6.71822775052538
H           28.12481390400579        6.82634235696497        7.06964001811752
H           29.95482405299822        7.70542179479383        7.56426033729065
H           31.49152739921983        8.05918630348635        6.83721550535746
H           31.44871631183972        5.87993412290440        5.60057140769508
H           29.88619927984663        5.51328118171772        6.26450045892329
H           30.86920364257661        5.56511117817326        8.59593144917782
H           32.43727632268478        5.90484607909387        7.92005420772350
H           32.35813062369480        3.72605091214678        6.64613573435514
H           30.78815262305433        3.38996408930028        7.31886186418220
H           31.77649191788033        3.43772979602392        9.64169151271201
H           33.34792722002551        3.76039352224401        8.96276840979568
H           31.68624278697011        1.23232732320180        8.40818348201971
H           33.10001523051091        1.31088009789388        9.45636045232646
H           33.26958347221147        1.55704263895323        7.72036369850177
H           30.41301147295060        8.49157336631717        3.50704387672020
H           31.75289824802774        8.29405470023660        4.59418220432799
H           31.19799101921950       10.47712435260447        5.71087583561283
H           29.85310758200792       10.69723505226966        4.63259006911053
H           31.43368539126992       10.69149329082771        2.66036157128292
H           32.77956334263397       10.47310538348752        3.74297620621988
H           32.21717343182929       12.66060808260040        4.87669040093220
H           30.88086955993809       12.88057533752692        3.78300872119820
H           32.47822545506621       12.86024963903529        1.82941020399669
H           33.81418655876257       12.64269991963091        2.92594672264509
H           31.93484561368261       15.07706061862815        2.91868247381943
H           33.58609656004906       15.06394327031757        2.30459354603873
H           33.28055545818237       14.85751018606424        4.02642567469945
H           28.42966508583941        9.17724902012143        3.51802817622201
H           26.01961629530064        8.95783710355916        3.17868222777075
H           21.60803366885096        5.85234568939187        6.00595250958169
H           19.21611027574025        5.39542389977691        5.69919599042902
H           17.12266404320062        6.29288029771637        5.93992214434649
H           14.75364851669903        5.73050778007311        5.62661579216487
H           11.04496121913277        4.47758140852099        0.95946144607893
H            8.75661605548566        3.63711395939561        0.76049506453129
