63
 energy: -11.426068610998 gnorm: 0.000426995758 xtb: 6.5.0 (97a52f5)
C            2.03492923725557        1.29370807019078        1.82153958913836
C            3.02599412960408        0.26926020270629        1.29133624294341
C            3.57477569298609        0.63400098262652       -0.08896668498982
C            4.56618362896443       -0.39590885326218       -0.63021659433639
C            5.10930571019732       -0.03386888251143       -2.01209961010662
C            6.08626165600795       -1.06953495202933       -2.55456579157953
N            6.66440989538625       -0.70092972758009       -3.86442036278032
C            5.72476274501374       -0.38768356042670       -4.96200032871724
C            4.68104049037177       -1.47236245737456       -5.19791040737913
C            3.76109502238226       -1.16517701235573       -6.37911647695987
C            2.70090112641168       -2.24260155746966       -6.60609850640988
C            1.77903998449623       -1.93685156799344       -7.78761739973656
C            0.72197257223382       -3.00882376683892       -8.00275348340656
C            8.06632411775974       -0.62046400617431       -4.05390306658397
C            8.94054018715574       -1.45081877447616       -3.34438361356577
C           10.29937092766952       -1.37659293931583       -3.53602289844126
C           10.84684834556846       -0.47000891061594       -4.44164248583302
C           12.23863248087012       -0.39865023894387       -4.64013564925945
C           13.44689769245961       -0.33708777352730       -4.81739522076792
C           14.83902572092068       -0.26374554497823       -5.02449916062672
C           15.46992661737541        0.96463320422784       -5.20006528177512
C           16.82997255991016        1.03662832373503       -5.40449741759891
C           17.60530046077483       -0.11753829374568       -5.44015284840393
C           18.99223081960873       -0.04377665899010       -5.64937060501503
N           20.13837913412038        0.01646366606747       -5.82702678385051
C           16.97694340258452       -1.34595397855505       -5.26491733233142
C           15.61682154776021       -1.41774150304780       -5.06050165659613
C            9.98054600992408        0.36196668550114       -5.14809170029761
C            8.62117656747127        0.28916169640035       -4.96040385177508
H            1.65145423895719        1.02165800172693        2.80738754147433
H            1.17826855682910        1.39672341477922        1.15308393877886
H            2.49526976393448        2.27945305045373        1.90890940738634
H            2.55536159818823       -0.72163968544675        1.24360936284193
H            3.86158023460808        0.15284988054265        1.99413441133998
H            4.05395432368723        1.61955178577791       -0.04637000660425
H            2.74433465345186        0.75148170745128       -0.79564907049764
H            4.08727160182631       -1.38170714709138       -0.67078822796928
H            5.39856102327511       -0.51211685555364        0.07433577420110
H            5.60264036465278        0.94448765437674       -1.97329476801659
H            4.27444959563544        0.09600243525042       -2.70953693647441
H            5.60775155395367       -2.04848201113476       -2.64479545415121
H            6.89963591454925       -1.19928723329918       -1.83629304681339
H            6.29840986005696       -0.24366305801971       -5.88124570155427
H            5.24861602987142        0.57390064466982       -4.75178891518841
H            4.07762187767738       -1.61597814706250       -4.29490984439827
H            5.18577383043275       -2.43219152592144       -5.35946320671811
H            4.35948651096855       -1.03871199598459       -7.28941114209327
H            3.27269192014696       -0.19586438127939       -6.22201198613390
H            2.10267988921488       -2.36771878811183       -5.69545768785601
H            3.18911629097834       -3.21230274732692       -6.76131093389924
H            2.38354347919711       -1.81444739034983       -8.69605301649140
H            1.30089641195183       -0.96085323794119       -7.63124156321435
H            1.17932432757149       -3.98192582810520       -8.19021499151079
H            0.07380904531575       -2.78139154388244       -8.85191689370070
H            0.08509706336606       -3.11662388741989       -7.12293593101142
H            8.53774068547503       -2.18394926734376       -2.66839897342340
H           10.96063578444344       -2.02734430461773       -2.98950512405273
H           14.87714717730763        1.86313843309962       -5.17412457746116
H           17.30918468174956        1.99125954676144       -5.53971048214761
H           17.57037078216521       -2.24399157054589       -5.29162537169361
H           15.13823586928227       -2.37290178761246       -4.92667280096139
H           10.39443807832620        1.07061535706352       -5.84516180729279
H            7.97332849759761        0.96437861081665       -5.49067258775707
