65
 energy: -11.360015707831 gnorm: 0.000997611611 xtb: 6.5.0 (97a52f5)
C            2.56031987587899        0.56882876087150       -2.15369914391439
C            3.48238939802662        0.74489454297958       -0.95717952065825
C            3.93778805407659       -0.58772312318745       -0.36031782721632
C            4.86170490562003       -0.42175460783468        0.84608259599176
C            5.32029487437993       -1.75627196211650        1.43335173229947
C            6.23216715079535       -1.59129765132110        2.64287590695363
N            6.73308039966620       -2.87293887501678        3.18375277949676
C            5.73739254641601       -3.92099375281118        3.49391350255424
C            4.64489479885070       -3.45219491614358        4.44653546575782
C            3.65432476578116       -4.55973583334840        4.80515582861871
C            2.54622810714991       -4.08975534608312        5.74750031533978
C            1.55351912001540       -5.19749433412174        6.10401894620998
C            0.44741204143249       -4.72244985830592        7.03331083018972
C            8.11203989443758       -3.06913979538461        3.44355467695063
C            8.69246244502639       -4.33815484272661        3.34947674441224
C           10.03111025671887       -4.52443045585656        3.59762012399669
C           10.84918070299742       -3.45424829531298        3.95243641607826
C           12.22111566354860       -3.64498138124245        4.20277075967375
C           13.41364120176322       -3.80650775106921        4.41563904196693
C           14.78903881767349       -3.98971092712363        4.66549415881795
C           15.61838611868508       -2.90093235127936        4.91281272587795
C           16.96240866204991       -3.08168085391522        5.15743526931915
C           17.50707395332869       -4.34922829842898        5.16031498446996
C           18.99982367964192       -4.52679992304911        5.43796152978977
F           19.69053113613146       -3.82611344443539        4.51695493429643
F           19.26085979868969       -4.05735000457278        6.67391421225572
F           19.31595619369696       -5.83461970481755        5.36033017865527
C           16.69404541155734       -5.43764501137924        4.91620233302635
C           15.34926172616799       -5.26268555044271        4.67093877371109
C           10.27513527963212       -2.18887963258276        4.05195441902103
C            8.93738018813509       -1.99863677072065        3.80257347371356
H            2.24633985072658        1.52694663590218       -2.57431437867667
H            1.65895711329104        0.01844855957605       -1.87846998532028
H            3.05067467517697        0.00584407629517       -2.95008224723185
H            2.98308709622418        1.33827763317275       -0.18004942292199
H            4.36363398636551        1.33417173322327       -1.24278504403312
H            4.44282728988330       -1.18177982940851       -1.13078545114219
H            3.06150409344767       -1.18014818852889       -0.07282151603173
H            4.35361611429530        0.16477694715914        1.62034445961819
H            5.73568120170054        0.17578001316287        0.56190105937414
H            5.83925694784052       -2.34158556325837        0.66562189716262
H            4.44331537057220       -2.35402708308339        1.70324503639072
H            5.72435661694948       -1.04857065536540        3.44444128308742
H            7.08952155178510       -0.97648038619280        2.35771846905312
H            6.25364078875513       -4.77429380944517        3.93998133375668
H            5.30942334181454       -4.28556715788516        2.55653919555676
H            4.10345685465291       -2.60651156839439        4.00934940447072
H            5.10529150668566       -3.05489333296532        5.35848757078042
H            4.19130048306401       -5.40132667076440        5.25849196107166
H            3.20964203882947       -4.96486983586444        3.88847850445561
H            2.01017160206127       -3.24797525753290        5.29353074275615
H            2.99028048651880       -3.68416846064953        6.66421374378679
H            2.09568843363711       -6.03580980534684        6.56005407456805
H            1.12099049155790       -5.60649574085731        5.18196842946267
H            0.85652442487552       -4.34125308208087        7.97014102567885
H           -0.25166822237798       -5.52376016552165        7.28160848857382
H           -0.12773748865567       -3.91374100730493        6.58033593743508
H            8.08752714679929       -5.17243239933708        3.04239940536560
H           10.46671020251530       -5.50549377939346        3.51451197946186
H           15.19505136810305       -1.91099520195784        4.91076580519370
H           17.60402709828046       -2.23870993552078        5.34931823532943
H           17.12681168713666       -6.42319774832064        4.92092647561422
H           14.71664412185826       -6.11288052608999        4.48100789224332
H           10.89769521950264       -1.35718707328628        4.33465895622574
H            8.50818933762895       -1.01942938164085        3.91933051342241
