100
 energy: -16.572882415767 gnorm: 0.000500983674 xtb: 6.5.0 (97a52f5)
C            2.10867934711492       -1.64725137506336       -1.41438859500728
C            3.28232167947342       -0.78014366020563       -0.98562948068370
C            3.65525409079486       -0.97291150539893        0.48524722791439
C            4.83290569843756       -0.10220269871517        0.92275450420459
C            5.21722245150714       -0.30791716701718        2.38794734370441
C            6.38216762268727        0.57539811492376        2.82019296960972
N            6.87407860201383        0.32603044309564        4.19232473510194
C            5.85467318340410        0.14064525034890        5.24758060355894
C            5.05606322003552        1.40878580407211        5.51604141372573
C            3.99144659487749        1.22891976405834        6.59751353011965
C            3.17792592826830        2.49875154603653        6.84827385135928
C            2.09927585456455        2.32029131687294        7.91788900076728
C            1.29716918288727        3.58938686670891        8.16201562407746
C            8.22855244729984        0.59310684864626        4.51986659216116
C            8.84401295182565       -0.00317726031941        5.62635524710879
C           10.16378107466091        0.24473773644314        5.92392862663171
C           10.92942914605912        1.09974303507882        5.13282133180667
C           12.28564008448684        1.34725323293943        5.41925748455563
C           13.47023428999832        1.57659727536622        5.62341345487109
C           14.83770107051351        1.85970662924626        5.80358266651604
C           15.64486326293023        2.17263647190174        4.71158057153704
C           16.97853795006579        2.46215624855012        4.87605012832144
C           17.56984640115207        2.45572392704100        6.14385344924914
N           18.93267906289223        2.77872961773644        6.31496992118433
C           19.81873628238398        3.08820158020029        5.17811522062938
C           19.68009559065288        4.53030251466664        4.70940652509228
C           20.55790026067956        4.85400670728274        3.50129053983863
C           20.41391069174417        6.30113486413339        3.02997331690108
C           21.28970820758926        6.62744363270152        1.81910413408692
C           21.16063376742354        8.07542293554835        1.37204855685321
C           19.55894190247023        2.89446418945880        7.64472103421850
C           20.05223280538511        1.55558292706454        8.17499580601904
C           20.69681254488269        1.66277232108403        9.55649510277983
C           21.20539656070884        0.32188150438483       10.08588161583627
C           21.83286537048842        0.42674336442680       11.47695198356545
C           22.34786063862793       -0.90788924528982       11.99357888913131
C           16.75660020895480        2.13126258670021        7.23524201650837
C           15.42249096815582        1.84152032486241        7.06844093079992
C           10.31918006628833        1.70149846230117        4.03373570704226
C            9.00103482229837        1.45452336681197        3.73295627135383
H            1.85362893879947       -1.50258730416202       -2.46699197321926
H            1.21630805094041       -1.42274341733661       -0.82657584352811
H            2.32843727571957       -2.70737183914433       -1.27260382934976
H            3.05594569251336        0.27934396930791       -1.16651278682926
H            4.15877109287688       -0.99311965230291       -1.61255467043906
H            3.88913308767309       -2.02862640726964        0.67048615607927
H            2.78443344807340       -0.75965709365199        1.11755063498140
H            4.59438001594636        0.95458874339098        0.74969948627211
H            5.69998528110547       -0.30630304943752        0.28236174050768
H            5.47410170463858       -1.36024836167454        2.55906125547491
H            4.34365409172934       -0.11657695745470        3.02163881268957
H            6.11372162703269        1.63232731091928        2.73398730371244
H            7.21743218726721        0.41734910571714        2.13138701693473
H            6.33934735345908       -0.18859822689901        6.16924010955780
H            5.19332563366469       -0.68180226807963        4.96214046484222
H            4.58187271216598        1.75043380001413        4.58868220522583
H            5.74134902458942        2.21745236897912        5.79748242426094
H            4.46483943420131        0.90189446065240        7.53154355129243
H            3.31783787934424        0.40952873016381        6.31748078970070
H            2.71433044576469        2.82942856832753        5.91051359054832
H            3.85076080753295        3.31612664805360        7.13589744050400
H            2.56736268865997        1.98280504373999        8.85245204593935
H            1.42979913367501        1.50044010393574        7.62438882148536
H            1.94185071548607        4.40672046347069        8.49158209232982
H            0.52806855689738        3.44936924368025        8.92544356351529
H            0.79739192275284        3.92227483285676        7.25003480134196
H            8.28763662431543       -0.69753818669180        6.23018130630307
H           10.62665130353123       -0.22921476406489        6.77312446712656
H           15.20406264973134        2.18679941667593        3.72887123865452
H           17.57308587191790        2.70606671179486        4.01419810670560
H           19.61055716384320        2.38917275087534        4.36336958450710
H           20.85314256013720        2.88404572743377        5.47153187961893
H           19.92147598694665        5.20806063613597        5.53708376171139
H           18.63093648132444        4.74159972270030        4.47200160450189
H           20.31559340925612        4.17198087516548        2.67687179389843
H           21.60780288034487        4.64697521105272        3.74283224928875
H           20.65752342811335        6.98231259086412        3.85471285208852
H           19.36328531184375        6.50844273634567        2.79150669622383
H           21.03248325690502        5.95136670858409        0.99249586362666
H           22.33708693394799        6.39752114089267        2.05707193051052
H           20.13083513849729        8.31413734858599        1.09856712787813
H           21.79008852315838        8.29623871746532        0.50659384207155
H           21.44822122494195        8.76223535394717        2.17072850221946
H           18.84783968638849        3.35308048425931        8.33730202426198
H           20.39025563906650        3.60342361659567        7.58066467242923
H           20.76654094169136        1.12295791964219        7.46417041827912
H           19.22038279299666        0.84219530429235        8.20677231220230
H           19.97700751030018        2.08993508276660       10.26564786227548
H           21.52377361552230        2.38285739288044        9.52200644880747
H           21.93523273589345       -0.09873184798258        9.38302016768938
H           20.38157773517195       -0.40228690534006       10.10712270757293
H           21.09571114240268        0.84404341382396       12.17624392045043
H           22.64786731732028        1.16273364886956       11.45267194351068
H           21.54512449872451       -1.64587138951121       12.05037092465081
H           22.78513999483654       -0.82125214179364       12.99120805894074
H           23.11500119584647       -1.31762851751712       11.33336842737839
H           17.18041434056165        2.10360088950798        8.22293925512564
H           14.81016289758720        1.59759764566220        7.92021016526589
H           10.89931126019027        2.36882108147168        3.41870911813182
H            8.54632725714693        1.95164430970205        2.89436370933234
