64
 energy: -11.405451652538 gnorm: 0.000846694817 xtb: 6.5.0 (97a52f5)
C            2.40148519214891        0.74722381054804        2.20175111954019
C            3.32026229920707       -0.08680535482582        1.32221333885804
C            3.78597065288882        0.66446541394736        0.07390534039987
C            4.69978571079692       -0.17017438360233       -0.82342577901176
C            5.17056679096023        0.58951175023874       -2.06323158578789
C            6.06773005178296       -0.24636461070611       -2.96792156698118
N            6.57445927731344        0.49503598596294       -4.14268872676819
C            5.58211778236477        1.19196519985600       -4.98886529689949
C            4.47178545600043        0.27861295530234       -5.49317868629053
C            3.48553457577986        0.99543740509766       -6.41478776617728
C            2.36778404182168        0.08286869294857       -6.91876794608250
C            1.38543299388508        0.79620224175256       -7.84893822083629
C            0.27404877641807       -0.11585388490060       -8.34419484491339
C            7.95370629833653        0.50783171379467       -4.46357819592640
C            8.53452277881297        1.60073170512293       -5.11588374262886
C            9.87404925089185        1.61272940977825       -5.42175669402054
C           10.69378717931450        0.53549723062404       -5.09247585240912
C           12.06641689908425        0.55077880844147       -5.40311162285264
C           13.25933146028804        0.56532399288925       -5.67024779800133
C           14.63472814280311        0.58185284418776       -5.97500600576269
C           15.49599533151583       -0.36771495079261       -5.43142272556345
C           16.84016866594116       -0.34943258578932       -5.72915981681723
C           17.35620971841244        0.61482563242747       -6.57515767797646
N           18.78591148748330        0.63072769488112       -6.89199018101085
O           19.52281464064116       -0.22672720901364       -6.37122693790603
O           19.21550173059695        1.50098242366977       -7.67144864357228
C           16.51008239564019        1.56263224675600       -7.12073766972053
C           15.16522064338296        1.54823670021375       -6.82568408632221
C           10.12001110556253       -0.55662357333236       -4.44524258827952
C            8.78109025719979       -0.57197528595793       -4.13701364195212
H            2.08165294452295        0.20326837019316        3.09295065190963
H            1.50318508711401        1.04734234514467        1.65977242049379
H            2.89669116803819        1.66092436460980        2.53495287846191
H            2.81499822298575       -1.01393097942462        1.01990749229743
H            4.19753019032199       -0.41495012420840        1.89557472132199
H            4.30300939581637        1.58521951906187        0.37072333901779
H            2.91389805721443        0.99992522535006       -0.50072004925085
H            4.17940561754217       -1.08578574749528       -1.12893421937417
H            5.56822170757831       -0.51338766312736       -0.24877537613868
H            5.70607411233863        1.49748244448063       -1.76101798037094
H            4.29917487435781        0.94573983532989       -2.62367389320853
H            5.54504873241566       -1.14096103308038       -3.31751900083556
H            6.92144050845141       -0.60429459919141       -2.38647969641805
H            6.09766692427963        1.62936992374434       -5.84750618394500
H            5.17064037955173        2.03431633478183       -4.42602702782735
H            3.92954407989018       -0.15697210698036       -4.64661740246435
H            4.91614433889876       -0.57615681219062       -6.01693326862082
H            4.02387863803443        1.42405751498226       -7.26831072101446
H            3.05100017732314        1.85498347423562       -5.89063637286847
H            1.82548064197612       -0.34000327889265       -6.06486143399051
H            2.80277683362740       -0.78052012249510       -7.43596950563876
H            1.93483015474020        1.21801722028510       -8.70039841138935
H            0.95863595676291        1.66347877385658       -7.32867640519690
H            0.67879013677798       -0.96781121554840       -8.89342295589620
H           -0.41819618483190        0.40508341670738       -9.00909651489740
H           -0.30783262541857       -0.51615517426216       -7.51225019426525
H            7.92940697659171        2.45959481757207       -5.34521885718054
H           10.30931933210886        2.46347663946789       -5.91760881968867
H           15.09541542648460       -1.11921449933741       -4.77267424656737
H           17.50604541977777       -1.08328016960146       -5.30905670455105
H           16.92032706715147        2.30938383806159       -7.77838296448721
H           14.50757501525298        2.28696250531624       -7.25104812401825
H           10.74405104387128       -1.39690463821927       -4.19309005501890
H            8.35227806118514       -1.44164041862112       -3.67184061675542
