94
 energy: -19.799780701650 gnorm: 0.000789789824 xtb: 6.5.0 (97a52f5)
C           -0.54870362480576        0.25359914490258        0.71028149416152
C            0.84383235444689       -0.35719635283704        0.68945803218018
C            1.71812501238411        0.11952705399543        1.85028468777634
C            3.12000874039377       -0.48918955482867        1.83294199684435
C            3.99826450853860       -0.00255014387972        2.98425339738114
C            5.39961100042882       -0.59058051769239        2.95590475475421
N            6.23213984639662       -0.09104594672127        4.04179702348408
C            6.84559537976547       -0.91063314184964        5.00083399541773
O            6.76964133263035       -2.12038470552772        5.09746265574984
C            7.60812000773133        0.00027474158621        5.86930429647839
C            8.40036058409798       -0.25594303275388        6.96959135745418
C            9.02052444500163        0.80464569386714        7.62662425942818
C            9.86224529445849        0.56811752783783        8.82411863973124
C            9.61985773412599        1.27669038328978       10.00437227561212
C           10.52069568356538        1.25360970990791       11.03852520396093
C           11.69003819708069        0.50653432681040       10.94004107198104
N           12.70725250094766        0.62741122366065       11.94614255443700
C           13.38792401250289       -0.41941278384079       12.60241217134987
C           13.22596713885426       -1.80190929174427       12.52708046861088
C           14.02748409390010       -2.60347736335712       13.30245212213152
C           14.98863916767787       -2.05264452656153       14.15450575670763
C           15.16047018383348       -0.69186643217294       14.24156270392720
C           14.35361281981911        0.13569731829616       13.45991766203453
C           14.28046981947359        1.57187285027379       13.31830358175941
C           15.00969491049339        2.61372602403191       13.89376642694635
C           14.72000085664476        3.90521082636079       13.52296488289107
C           13.71962049149620        4.17369493263527       12.58731760665353
C           12.99142635428760        3.16169177486462       12.01506991173767
C           13.26694045899875        1.84646968450917       12.38472783205925
C           11.90020168052581       -0.26521635130538        9.79971770375900
C           11.00382895967643       -0.23480354333375        8.75821304099597
C            8.85128524598225        2.13463938854357        7.14123787582281
C            9.55879089487294        3.25569997794490        7.80826987445958
C            8.85129546513282        4.27442296619738        8.44992826536001
C            9.50558162002577        5.20082623216342        9.22531213943642
C           10.88808111505182        5.14885640243972        9.38433057162816
N           11.55653353568337        6.04877473428050       10.28046334106234
C           11.16305235963138        6.33057051516886       11.60663393189943
C           10.10928272838101        5.83192301677892       12.37174956443836
C            9.98429834163582        6.24609128751644       13.67492860373888
C           10.89449286185804        7.14596047637068       14.23553337040569
C           11.94687342716205        7.63660956876510       13.50061112104998
C           12.08724907389401        7.22350548856056       12.17535576136137
C           13.09385264093481        7.49244607437721       11.17577358616039
C           14.24750026065241        8.27661416666279       11.19408203855247
C           15.03184719440735        8.32060547695249       10.06668716167330
C           14.68558536299508        7.59829945144387        8.92173525021188
C           13.55485331711018        6.81959555347295        8.89057465138207
C           12.75091723254440        6.75731113725229       10.02807249674519
C           11.60253623192096        4.16818402919289        8.70381350050312
C           10.95099860963025        3.24089619218739        7.92968275702601
C            8.03546266555629        2.36966899080235        6.03678716643596
C            7.42308684700410        1.30467483270150        5.40951667496881
C            6.54481532225181        1.26293201509379        4.23000096581175
O            6.17549090922706        2.20919113378651        3.56166368335161
H           -1.16122993700179       -0.09348782282536       -0.12453304302288
H           -0.50253939055659        1.34241706448472        0.65326468044301
H           -1.07623138953530        0.00153103269039        1.63173137939166
H            1.34385080695934       -0.12408517493485       -0.25975209958566
H            0.77601908646243       -1.45269576606688        0.71310977506540
H            1.22661605286887       -0.11467097548038        2.80205369320340
H            1.79216760573312        1.21334448397684        1.82917985941679
H            3.60764115408692       -0.26042357381966        0.87786024632813
H            3.04772266416321       -1.58288416446337        1.86189270619452
H            3.52314228812530       -0.23822953228720        3.94350610657744
H            4.06877184542920        1.09123510405433        2.96151034405280
H            5.89654522457142       -0.35529599962404        2.00990475077657
H            5.36221038084867       -1.68217483032564        3.02548510071124
H            8.52605088152260       -1.26375909472186        7.31986096066959
H            8.73847889033116        1.89108150682628       10.07008335123995
H           10.34979925786253        1.83802292204234       11.92569690976317
H           12.47924319784046       -2.21749384455959       11.87458990465738
H           13.91301632096000       -3.67393422622016       13.25543361422315
H           15.60262463249403       -2.70560770931381       14.75260734593537
H           15.89765662666938       -0.26036721253039       14.89525829531612
H           15.78511470758139        2.39632096414987       14.60677436772333
H           15.27444132546746        4.72165209284298       13.95544375890496
H           13.51259069786583        5.19148216159030       12.30797245497533
H           12.23204646093653        3.36957403640271       11.28376064678424
H           12.80587143961846       -0.84082085503465        9.72331262648964
H           11.20365481545715       -0.78329212253318        7.85392951865259
H            7.77842777782896        4.29616626239912        8.36645768145334
H            8.95409528758081        5.97410644727563        9.73067772246860
H            9.42486486603598        5.12310600816770       11.94200473349670
H            9.17437094908762        5.86854566716169       14.27710736241130
H           10.77317376557543        7.45285434070674       15.26125683947224
H           12.66121195422138        8.31704270855858       13.92914191300208
H           14.50665690507981        8.82986135263986       12.07933509931323
H           15.92591828221553        8.92200261686027       10.06365834268196
H           15.31618608529574        7.65464282705711        8.04973792384260
H           13.27843920128958        6.27078621418265        8.00851213536411
H           12.66976388194189        4.11827602863510        8.82980408864878
H           11.50599494691470        2.45780916693051        7.44245092068280
H            7.89800724127659        3.36718325825267        5.66227406040541
