80
 energy: -15.672554835187 gnorm: 0.000420174415 xtb: 6.5.0 (97a52f5)
C            2.04655747268163       -1.53549525607542        0.21744722280146
C            3.38314945811898       -0.89114884868259       -0.11606055122799
C            3.67475975481054        0.34625641761558        0.73435945031954
C            5.01116196376852        1.00569709917714        0.39384889580712
C            5.31011764199451        2.23111184264866        1.25546463419127
C            6.63408881521196        2.89444149731462        0.91526100432486
N            6.90823140483364        4.02694172813406        1.78444099040582
C            6.53218669381254        5.29872855045899        1.34063592908539
O            6.01765251635131        5.46738539097241        0.24801632067068
C            6.77901893880756        6.42397619859258        2.24527697552470
C            6.44744558130006        7.69471148178485        1.85223558410487
C            6.65851843474748        8.80873994644151        2.66890334037808
C            6.28200495813041       10.06172653504676        2.16133441274549
C            5.99057359323437       11.19544199226558        1.80617468154557
C            5.73381762403710       12.54438473154543        1.56829706290515
C            5.16925378940350       13.13866038417756        0.48220966715610
C            5.06976052818961       14.55425529805640        0.59334305721134
C            5.55436367187551       15.03760035248316        1.75826375561606
S            6.14585144181141       13.75307017933386        2.74992793230379
C            7.22488298604456        8.63562469565687        3.93439269691009
C            7.57143147089586        7.32634708251437        4.36535870538717
C            8.13997606482709        7.10932870026923        5.64433871188463
C            8.47423996406067        5.83916033358816        6.03674804270152
C            8.27057262002790        4.72627180460045        5.21708200525555
C            8.64812859827204        3.47230147009709        5.72134017977044
C            8.93375129905352        2.33222383787970        6.06070374497622
C            9.17853687990914        0.97487550058001        6.26022282491703
C            9.73477816055305        0.34128026088261        7.32811926619335
C            9.82107890119987       -1.07095743484633        7.17199460033019
C            9.33448805058730       -1.51238610207228        5.99130504282953
S            8.75703247326729       -0.19140061094042        5.04010996897975
C            7.70523822422219        4.89985462930947        3.95124759829531
C            7.35452436012142        6.20831746560949        3.52143041167990
C            7.45786820440672        3.75977953989065        3.04735965585249
O            7.70606817677967        2.60659116874491        3.35709075886153
C            8.37031220436132        8.23198531350087        6.55595194349045
O            8.86664406271825        8.05949707150627        7.65642646922366
N            8.00066454981119        9.50481575117087        6.11060145903834
C            8.24042142162035       10.62579760259498        7.00476584454203
C            9.68384673952470       11.09682166963984        6.95027231931299
C            9.97475511080142       12.25163591208398        7.90732296561555
C           11.43556527562722       12.70111677663942        7.87860229064221
C           11.72986396057336       13.84425953285273        8.85135917628361
C           13.18694275956472       14.27947309223411        8.82800217751139
C            7.47368637463151        9.77585990741619        4.83845625993726
O            7.24127423209816       10.93050688162889        4.52194023255428
H            1.85435679259668       -2.41916689761965       -0.39424064732564
H            1.22234639337543       -0.83895674421095        0.05653457927842
H            2.00797238679636       -1.84477985510879        1.26296989476016
H            3.41405563514905       -0.61588773120986       -1.17808954419076
H            4.19494755367336       -1.61844494563056        0.01330876067883
H            3.65895109260149        0.07426947319460        1.79622930562171
H            2.86443452861345        1.07468576231087        0.61381360077810
H            5.02255595584101        1.28919877248245       -0.66497376950974
H            5.82036164875273        0.27437424448030        0.50385551724367
H            5.31443630926488        1.94883484223428        2.31464763455529
H            4.50248743061129        2.96526165905671        1.15642194579941
H            6.64031409431922        3.24317316390488       -0.12242242177753
H            7.45912738307565        2.18175617933377        1.01457903354527
H            6.01027526493275        7.83413036679600        0.87945449830145
H            4.83278384499433       12.58269675459271       -0.37953504245439
H            4.64869550799092       15.17788642438626       -0.18203795222604
H            5.57680758162972       16.07213312186554        2.04391325900352
H            8.90602149593553        5.69915821450445        7.01183839135242
H           10.07508769737851        0.86650884659093        8.20743269871543
H           10.23664990008104       -1.72274135429379        7.92689854926007
H            9.30426862247593       -2.53688736681124        5.67217529770135
H            7.97412191432320       10.31440181427541        8.01989732766101
H            7.55681492476635       11.43698954982063        6.73403635441797
H            9.93120833315358       11.38869529188565        5.92327300014343
H           10.34348247596121       10.25109750848845        7.17628359305874
H            9.70213718177703       11.95823773987374        8.92776917683677
H            9.32272533873962       13.10008891274686        7.66926655351140
H           11.70771939919848       13.00394772326011        6.86080110608652
H           12.08617852366693       11.84885599317323        8.10698945420668
H           11.44484269484090       13.53813303485335        9.86610207227515
H           11.07801071428789       14.69568482899718        8.61733572014405
H           13.84891430651051       13.45390022755146        9.09364276099880
H           13.38172249093064       15.09508251849388        9.52715206212176
H           13.48037717574591       14.62113454949868        7.83436150918797
