84
 energy: -16.815419538984 gnorm: 0.000665923994 xtb: 6.5.0 (97a52f5)
C            0.51869472482574        0.26495054799277        0.12707575657922
C            2.03944921885926        0.27642613213759        0.14824494614889
C            2.62126179947871       -0.42953867842875        1.37415381708379
C            4.14971947848988       -0.42717539296195        1.39843724623721
C            4.72978361691920       -1.11797499389998        2.63163683740249
C            6.24865940909552       -1.12847522099844        2.65129263089054
N            6.77116508607590       -1.78438658096168        3.83873079041787
C            7.16022747962215       -0.97719537432617        4.91226092890537
O            7.06886538890167        0.23761551330683        4.86336214737994
C            7.68627022596024       -1.65066109025691        6.10146875673330
C            8.09673088396557       -0.90619667237356        7.17675651989008
C            8.61846443485458       -1.48829542091399        8.33526666795157
C            9.00177350980741       -0.61768034531806        9.36916314474800
C            9.34023586296176        0.11460470127098       10.28646877298572
C            9.74357872945554        0.88664259722831       11.39140804717049
C            9.68538005452217        2.26894354838796       11.39865630493743
C           10.09601475372644        2.95582463286729       12.51618766148827
N           10.55679005262264        2.39249634527803       13.62073212838197
C           10.60848150204301        1.07100488383066       13.60354331801067
C           10.22446738000996        0.28763330978290       12.54195822360579
C            8.73515932870851       -2.87784244237746        8.41081571023983
C            8.31301281403483       -3.67048266154478        7.30900288947122
C            8.41510191097813       -5.08210796299947        7.34883998359840
C            7.98090428244421       -5.82863360721449        6.28442331082366
C            7.44082165002844       -5.24759785203019        5.13412927021915
C            7.01512002180602       -6.11614216087729        4.11546206404725
C            6.61265433791956       -6.82024424325634        3.20195546110881
C            6.09769251055336       -7.52336441336256        2.09767203365603
C            6.09651423024192       -8.90439236849992        2.01728570858818
C            5.57051833777884       -9.51404875390101        0.90319596463939
N            5.04929312209526       -8.87504018422462       -0.13109261899980
C            5.05555617741822       -7.55530962044035       -0.04408156609376
C            5.55468833424954       -6.84551226192283        1.02106831371039
C            7.34462186388693       -3.85698633329977        5.04953941552141
C            7.77917521828919       -3.06291795741981        6.14555758802070
C            6.80534350735858       -3.18684452994528        3.85058486370622
O            6.39472663669615       -3.80324514862493        2.88219462120108
C            8.98616877950191       -5.75331793688370        8.51801566261971
O            9.08744446595103       -6.96772268216252        8.55918866197627
N            9.40714314204055       -4.94625027661160        9.57949582253695
C            9.98534714151041       -5.60885174359565       10.73831292545739
C            8.94017113637302       -6.34922744660790       11.55660574957990
C            9.53581045484325       -7.11834058441665       12.73491792300916
C            8.49308305495820       -7.91088010484564       13.52353872645720
C            9.09730644258000       -8.71294801389857       14.67758117031584
C            8.05945033059197       -9.51681924159615       15.44568675682366
C            9.28829320413020       -3.54791007519158        9.60365205589243
O            9.64367032232738       -2.93278126091621       10.59423572403123
H            0.11776906554260        0.77421984343184       -0.75136998730944
H            0.10868938703631        0.75902106229288        1.00910343001183
H            0.13255682878447       -0.75542691788726        0.12007426913309
H            2.40903728796468        1.30940232043736        0.11618367314729
H            2.43244976042014       -0.19494385282343       -0.76161233630313
H            2.25492471126498       -1.46209576501407        1.41208708269807
H            2.23863015147967        0.04343802589209        2.28610820857906
H            4.51683720327673        0.60461313346577        1.34942362858942
H            4.53260454949168       -0.91101988293861        0.49231112169450
H            4.36447286236917       -2.14994666200061        2.68879695692446
H            4.36082924326152       -0.63082170279920        3.54145256903642
H            6.64442378047209       -0.10811055100467        2.61865372077127
H            6.64346675501170       -1.64893645620191        1.77267506069256
H            8.01414679494067        0.16488051189537        7.12093678993243
H            9.31994535704471        2.79061069743144       10.53070631399883
H           10.04847819914241        4.03486480383852       12.51581312651624
H           10.98394998788642        0.59640529606451       14.49811652855870
H           10.29103400462265       -0.78619276948906       12.58656555936448
H            8.06177737241292       -6.89975277003135        6.34144446323953
H            6.50580697025747       -9.48499977194028        2.82610494138224
H            5.57196500306751      -10.59249151484916        0.84505934639935
H            4.63492400886504       -7.01964126199682       -0.88222872390453
H            5.53372048339144       -5.76890722885957        1.03684113326124
H           10.49774215881244       -4.85844258965408       11.34951214173569
H           10.75408733481370       -6.30158545479637       10.38043824816359
H            8.40045351135472       -7.04040443053470       10.89881513058377
H            8.18418124302884       -5.63978038996889       11.91217443031506
H           10.05653529406485       -6.42339941175524       13.40387253599475
H           10.31242404727574       -7.80051230998320       12.36928296054674
H            7.95977955487269       -8.58892872532628       12.84695860153272
H            7.72572577880402       -7.22951749784867       13.90924194721248
H            9.62454233470016       -8.03045948613050       15.35637731127162
H            9.87476318021718       -9.38101718456621       14.28490928173286
H            7.29741150697456       -8.86623597905494       15.87754064627036
H            8.50628640226411      -10.08776404773076       16.26207593265972
H            7.54702153277409      -10.22452165278507       14.79229511654606
