53
 energy: -10.459565119859 gnorm: 0.000400403335 xtb: 6.5.0 (97a52f5)
C            0.92906099818186       -0.47985171216542       -0.42754819260526
C            2.40463295949147       -0.21936304296907       -0.16747009633234
C            2.93557178108004        0.99902046327228       -0.92464971351711
C            4.41761639912079        1.26587093759952       -0.66281260879313
C            4.94792445577845        2.49205198796808       -1.40404272907987
C            6.41695637375460        2.76414119503772       -1.12733708455480
N            6.89772899357352        3.94537151313236       -1.82640584947390
C            6.59987819805140        5.19962148803531       -1.27483935633559
O            5.95460218929069        5.30239254899404       -0.24548084886063
C            7.09519065838512        6.39057288177047       -1.98096436493614
C            6.84481092017752        7.64271543843414       -1.47907822914036
C            7.31568279913508        8.77737773745483       -2.13029540339879
C            8.03735308131372        8.65939778641757       -3.28041074169723
C            8.32827105388363        7.40148412612225       -3.84878546487749
C            9.08975602443177        7.24722443707912       -5.05834173366012
C            9.63751969417834        8.38952415850991       -5.78193792862838
C           10.35913299595400        8.34812451019124       -6.93894004248355
C           10.78875759918209        9.63351578336747       -7.42475154954055
C           11.54768399012037        9.89988655321557       -8.57792569300951
C           11.87366983149963       11.19620522162877       -8.88265472457727
C           11.46147691384772       12.24803767314863       -8.06261615261341
C           10.71883447705900       12.00526334318895       -6.93301295860556
C           10.38149360590603       10.69627735907224       -6.61341154442308
S            9.46110058514614       10.06272893915224       -5.26811603465412
C            9.30987354981782        5.96526950015427       -5.53046927983936
C            8.82494089961143        4.84578226772331       -4.87174009039422
C            8.10065332046713        4.96192980238771       -3.71132241771384
C            7.84089522693497        6.24923426872276       -3.18058287041007
C            7.60461589069828        3.76274040949961       -3.02431789970460
O            7.80413542402402        2.64882345929147       -3.47947054031061
H            0.56408124876186       -1.35048812250619        0.12114486077318
H            0.74077148141372       -0.65687566411075       -1.48761956486126
H            0.31964680759715        0.37496037171818       -0.13014638035345
H            2.99729061812015       -1.10201417179674       -0.44068368200215
H            2.57906474342218       -0.08134127655688        0.90750802661269
H            2.34916119644904        1.88456699622074       -0.65270740246941
H            2.76969613838943        0.86549249699082       -2.00013106356614
H            5.00569415105800        0.38416594821932       -0.94336919960134
H            4.58322309323374        1.38930751056136        0.41392384365258
H            4.36196343677632        3.37654273299324       -1.12848600961287
H            4.79798253028874        2.37204509313810       -2.48309439557826
H            7.03181510345133        1.90977574794002       -1.42793617844563
H            6.58609379135594        2.91019380041078       -0.05578462094815
H            6.27769461025438        7.73247512941005       -0.56859850058443
H            7.10924217541777        9.75233638683270       -1.72012046295329
H            8.39429063102737        9.55547332574694       -3.76841282498715
H           10.60218080694914        7.44006338591568       -7.46317513704634
H           11.86389133301111        9.08512678515806       -9.20510189743497
H           12.45534256704679       11.40735968839902       -9.76476714119926
H           11.72930004146257       13.25974460820016       -8.31919764549947
H           10.39554273258764       12.80784211477775       -6.29322414017555
H            9.87789128701887        5.82581814017589       -6.43225785440676
H            9.01506858482107        3.86095793671744       -5.26263048514966
