77
 energy: -14.724785252369 gnorm: 0.000521889153 xtb: 6.5.0 (97a52f5)
C            1.67209894776554       -0.67710639828917       -0.83755480292237
C            3.00898081373409       -0.03950611629812       -0.49121797729298
C            3.33769685988001       -0.12215939966086        1.00057445247837
C            4.67959827562613        0.51910357721239        1.35451850494508
C            5.01382383146901        0.42672280458503        2.84268657587565
C            6.34047369004670        1.07635724924057        3.19859877864324
N            6.64356950829689        0.95151900174855        4.61500704035315
C            6.01910384539553        1.84207639437313        5.49974426684208
O            5.25276278183792        2.70150156230533        5.09839301082313
C            6.32188598373502        1.70388526681201        6.93058780628938
C            5.78085542551049        2.57972580589544        7.83975272442514
C            6.08525436695962        2.47935479243043        9.19260623703905
C            6.91580818902090        1.49247067815893        9.64362513036213
C            7.47337241672145        0.54600500031865        8.76154562428482
C            8.34977130629954       -0.50419037810060        9.20223491478753
C            8.64425754129873       -0.75209429510910       10.60998523272248
C            7.77454260151819       -0.66959876147817       11.67002409265797
C            8.35287893068584       -0.97373976480215       12.92008869747425
C            9.67997330944364       -1.30147379131866       12.84317159197882
C           10.54585386478106       -1.64421355443906       13.88197599218222
C           10.35638750273890       -1.79384734674710       15.22006637249384
C           11.45645466869887       -2.14838415719860       15.98252972895308
C           11.37583088139987       -2.41385207133421       17.41966737792788
C           10.16482239570044       -2.60009892034822       18.08513509973428
C           10.13613570068763       -2.84835628832963       19.43980868162805
C           11.30893602403084       -2.92662016190781       20.17700326516805
C           11.26712658973634       -3.16996273544577       21.64574577399620
C           12.51609317005597       -2.73701426287739       19.51985474001774
C           12.54868597150315       -2.48995613181480       18.16572630728436
N           12.67526846934551       -2.23072519501005       15.36393451098011
N           13.17545251084324       -1.79855481179393       14.19015541764169
C           13.15606592943296       -2.59076189607570       13.06564739026745
C           13.57871609482964       -2.08563384058589       11.84541632737221
C           14.02355411731105       -0.81302506824078       11.78411470528255
C           14.04670691862236       -0.06466379621852       12.87167724251930
C           13.62962715348402       -0.54634267000916       14.03481439877791
C            7.93270048056941        8.00855067729741       13.91925951221711
S           10.21842872790650       -1.24533064099287       11.19394746894906
C            8.93893118673161       -1.31623778886437        8.24580737036450
C            8.66114434649473       -1.17686275458144        6.89708896634059
C            7.79096145089381       -0.21007249241432        6.44791071904580
C            7.18971418911569        0.67444084921898        7.37790714712856
C            7.50178019311703       -0.08327358041227        5.01647803196256
O            7.99074932688605       -0.85133081110441        4.20408611714765
H            1.45190318815351       -0.61204953657286       -1.90514165155945
H            0.85377125422981       -0.19207993334024       -0.30297492807062
H            1.65568154208906       -1.73293384068191       -0.56251190014874
H            3.01811698685257        1.01202249205851       -0.80638317922193
H            3.81381096446252       -0.51576665811634       -1.06619597945753
H            3.33578300439572       -1.17113603247353        1.31966071264152
H            2.53825680108292        0.35432798085787        1.58033088783956
H            4.67826601208204        1.57032060563236        1.04306162412703
H            5.47818750947652        0.04787528425565        0.76941017378250
H            5.03076890587183       -0.62313751102926        3.15742023330616
H            4.21695578158716        0.89206516707327        3.43464289213311
H            6.33132838490618        2.14082145697529        2.94314932956515
H            7.15876446117240        0.62246910209814        2.63018907480589
H            5.12730326405691        3.35746309745165        7.48348990702114
H            5.66882960603054        3.19127511271855        9.88630372342117
H            7.17797182110622        1.45876272187796       10.68505023310734
H            6.72636670338969       -0.44269303756020       11.55208450994404
H            7.80519210843440       -0.95361011799274       13.84938991347369
H            9.38443282796555       -1.65509945345550       15.65256991302300
H            9.24234419835259       -2.56377901035684       17.53387297281177
H            9.19363965627451       -2.98581240696141       19.94173144448581
H           10.46501500066215       -3.86128692713416       21.90591341884713
H           11.09848049638735       -2.23854652686291       22.18689624468143
H           12.20318759033417       -3.60153477110003       22.00123948182223
H           13.43322060424830       -2.78379846728924       20.08160787930607
H           13.48759171537132       -2.34669471315457       17.66013669406022
H           12.78527974911414       -3.59973382566143       13.13303227706753
H           13.55571592784628       -2.69135016230729       10.95515518512681
H           15.20999052750652        1.55105549936847        7.95677122406434
H            9.03984291756797        8.53063986852335       12.48379312614877
H            6.86886390165763        6.94354092190182       15.05656948680193
H            9.61174536440733       -2.08937458006091        8.57393758620088
H            9.11980480838532       -1.83182557996961        6.17619690329860
