74
 energy: -15.024092013584 gnorm: 0.000253214762 xtb: 6.5.0 (97a52f5)
C            1.53220650052508        0.90043129813609       -0.17838823508967
C            3.02682215834478        0.62049836724223       -0.21153088046574
C            3.36515263226050       -0.83082798792376        0.13214255191008
C            4.86629851458945       -1.11921172835400        0.11351760244701
C            5.19712423044320       -2.56951756570555        0.46014120268450
C            6.68845009719832       -2.86176199354895        0.47289777306792
N            6.96089999315263       -4.24396653973605        0.83296288294806
C            6.87782753460610       -4.59210433632708        2.18870057023058
O            6.63516498278897       -3.75753390228955        3.04444061866162
C            7.08779867806909       -6.00139924571254        2.54318610438314
C            7.05355316657009       -6.39744875864760        3.85833792540417
C            7.26567645053932       -7.72582164455354        4.20764304788213
C            7.49236006651051       -8.66683010001697        3.24294231184922
C            7.51034356438440       -8.32287443563373        1.87732090622384
C            7.74274673113569       -9.28829209544650        0.83939619749508
C            7.83543432352135      -10.72083308559169        1.10533953519393
C            7.06452020648713      -11.44664297185349        1.97789721564545
C            7.36838097922201      -12.82292173424234        2.01028449975113
C            8.38211017418179      -13.18956749504203        1.16523196510115
C            8.90910353556145      -14.52687612522071        0.99213428781154
C            8.36679969465952      -15.69692753220689        1.57051836752989
C            9.15729997179290      -16.73819910905167        1.17223673842626
C            9.00389107382130      -18.15197936340223        1.51472637686149
C            7.75493581030126      -18.66458953178540        1.87750512829609
C            7.60613507908306      -19.99071616992914        2.20696194616521
C            8.70255466184788      -20.83921214994153        2.18715056434415
Cl           8.51557574520651      -22.50422865862172        2.60265438668971
C            9.94960347692679      -20.34705838614738        1.83398484595013
C           10.09688254958102      -19.02179020334137        1.50320885666661
N           10.13818392665097      -16.14004438543577        0.36168354191718
C           11.18519220658012      -16.84346665288476       -0.34606219606186
C           10.87749685119667      -17.68672627912421       -1.40343867664524
C           11.87712399823778      -18.37078231533627       -2.05934296902129
C           13.19211238811463      -18.21651386643449       -1.66740649316737
C           13.50668718528775      -17.37343828856577       -0.62011610202889
C           12.50867557391056      -16.68753263380432        0.03630477744194
N            9.98146824294698      -14.82259799461265        0.26083028692669
S            8.96087696750448      -11.79447915650778        0.30474051346533
C            7.85919236858300       -8.83816272875714       -0.46691070724290
C            7.69274466276625       -7.50443596640482       -0.79620093403129
C            7.41548851884604       -6.56292990132373        0.16958077506266
C            7.33269976313354       -6.96044533253704        1.52735064404228
C            7.21160090938292       -5.15945167177481       -0.20058370617273
O            7.25323903810606       -4.80281566257131       -1.36707490698402
H            1.30411770976706        1.93874178297823       -0.42754750664949
H            1.11569667536529        0.70066675050630        0.81016553130777
H            0.99681249987986        0.26700828289752       -0.88737332097387
H            3.55104094207978        1.28896420870138        0.48368555131427
H            3.43452734273113        0.86295697596735       -1.20145055022647
H            2.85290121276368       -1.50310118608629       -0.56620203516683
H            2.95626193473343       -1.07895651830541        1.11873866125360
H            5.37802989173612       -0.44859927889766        0.81374692569164
H            5.27781433361154       -0.87297974487654       -0.87230230981845
H            4.70209631791685       -3.24556264677674       -0.24651239179353
H            4.77682657661790       -2.82196448565252        1.44070122495413
H            7.20309934698885       -2.21408261903802        1.18962111016843
H            7.13255982815235       -2.66334731262073       -0.50775387992323
H            6.87036467824739       -5.65649161423749        4.61734060729126
H            7.25576841970159       -8.01168890125769        5.24657443812619
H            7.69318117856289       -9.68237525905855        3.53134232347938
H            6.26145280395500      -11.01048639082780        2.55150462944934
H            6.84983098645581      -13.52506311669359        2.64420171752685
H            7.50634287323432      -15.75498550227038        2.21359965870546
H            6.90115079986993      -18.00997317405107        1.88543501548073
H            6.64369616661530      -20.38726145894066        2.48220246801486
H           10.79267213504097      -21.01665098131329        1.82391458845913
H           11.06539113522667      -18.64084155454126        1.23556172652657
H            9.84864189493134      -17.80097209026504       -1.69696997284396
H           11.63220547137927      -19.02777339516167       -2.87758244932269
H           13.97345462683750      -18.75297191074148       -2.18019766863959
H           14.53332707327842      -17.25152740284327       -0.31610917742298
H           12.74047033682607      -16.02715710238043        0.85349244045643
H            8.05266268302982       -9.55872505671094       -1.24236165036499
H            7.76449693985026       -7.18433327648567       -1.82145484660610
