74
 energy: -14.208477472427 gnorm: 0.000554572200 xtb: 6.5.0 (97a52f5)
C            1.51290329092298        1.07460012468950       -0.02996897493117
C            2.98858985341798        0.72836614739855       -0.15922017582861
C            3.22663695272305       -0.59071019719426       -0.89681082005718
C            4.70858807722775       -0.93918651780687       -1.03836095670794
C            4.94609519885723       -2.25403714319195       -1.77976032962373
C            6.41865579423870       -2.59227625313629       -1.94127448042657
N            6.61109301178205       -3.83662383407702       -2.66749830881592
C            6.52638099843559       -3.79759375336461       -4.06584370677172
O            6.31165074872141       -2.75328184138068       -4.65748753270120
C            6.70256177044346       -5.06013812227280       -4.79427539174680
C            6.64551724287149       -5.07782087952707       -6.16652854551701
C            6.81544836722263       -6.26355759948188       -6.86928907866854
C            7.04144627268276       -7.43198731463348       -6.20167511983471
C            7.10919213002954       -7.48158865182576       -4.79415563326158
C            7.34658064751825       -8.69793022092381       -4.06296744458720
C            7.53445200534498       -9.97195748380010       -4.73078673205995
C            7.77265360578671      -11.19376222206039       -4.14615807962272
C            7.91458336535767      -12.26725726216483       -5.05581417188297
C            7.79078791267473      -11.89756028332816       -6.36826596761205
C            7.88253531780424      -12.68810859206195       -7.51337592472543
C            8.04926809512168      -14.02287016947736       -7.71083743225208
C            8.09320190297553      -14.46402306022406       -9.02290383189044
C            8.18872147761061      -15.87483690620688       -9.39129557810651
C            8.07834134860164      -16.91131890735349       -8.45869476106340
C            8.17310730556568      -18.22491156376365       -8.85393827536289
C            8.37897776222871      -18.53838060700708      -10.18876894999720
Cl           8.49799753271598      -20.18806357792726      -10.68102626097222
C            8.48621664148781      -17.52400863812801      -11.12735334065259
C            8.39071367655265      -16.21163203450092      -10.73123704674828
N            8.06068880501008      -13.52810848580273      -10.02172789424484
N            8.19584803391356      -12.18929633368818      -10.08890409281041
C            7.11586506642936      -11.35056752375863       -9.93838042734191
C            7.29576687512591       -9.97634240977064       -9.90179739972137
C            8.54207953081054       -9.47669803691926      -10.03388838090857
C            9.57039429649393      -10.29021978388656      -10.18839024220440
C            9.39706256965883      -11.60497761595760      -10.20938955039700
C           15.40090519059832       -6.67244130911070       -9.21112725339099
S            7.48503126443869      -10.18873549377712       -6.46573749461239
C            7.39185593038297       -8.63032012191639       -2.67799712855323
C            7.21717498294913       -7.43916739914632       -1.99603079499973
C            6.99068307947395       -6.26051955437968       -2.66818892987867
C            6.93422988080617       -6.26616539645102       -4.08335891517175
C            6.81074483638399       -5.01004084407118       -1.92601947907002
O            6.83364989759057       -4.99103817051371       -0.70625703712224
H            1.35853423795539        2.01719441336992        0.49921832646485
H            0.97238441423277        0.29916841070381        0.51512210518546
H            1.04254003184853        1.16750336950792       -1.01016643225735
H            3.45211324356972        0.67655168854896        0.83453650808334
H            3.52045119276527        1.53534175092088       -0.67983422297058
H            2.76383874527014       -0.54482022798583       -1.88971972504223
H            2.70582272296945       -1.40276978986788       -0.37580974035355
H            5.17230980876845       -0.98766760232862       -0.04608526885017
H            5.22867439913529       -0.12615947776213       -1.55852674512103
H            4.47875195677385       -2.21296691915085       -2.77071807222911
H            4.44201433721193       -3.07541064380074       -1.25735908196720
H            6.90636233626210       -2.68337897552155       -0.96523229859954
H            6.94079366891503       -1.79753623576796       -2.48379805134825
H            6.46734685342970       -4.15364314090028       -6.68926451381054
H            6.76916268108743       -6.25721200059097       -7.94588968850288
H            7.17316531701702       -8.34151608411991       -6.77283114755772
H            7.84935342643562      -11.33493285535099       -3.08000040022381
H            8.10842283417589      -13.28345073161743       -4.74936049117034
H            8.11804065308530      -14.69442014839389       -6.87710902655319
H            7.90636172526999      -16.68253986698143       -7.42250858230715
H            8.08719783105248      -19.02490468515190       -8.13824588769052
H            8.64369803352892      -17.78107713710553      -12.16103637123843
H            8.46992319671457      -15.41731291386682      -11.45250833653331
H            6.13031667210741      -11.76848278776227       -9.82012804759349
H            6.45962136937187       -9.31001384737977       -9.77206924369088
H            8.13521433254450       -3.41004288383994      -10.99165973392451
H           14.22088448281990       -7.09117511705568      -10.60175877046380
H           16.15559036527449       -6.89660721227644       -7.51180221399553
H            7.56702882440356       -9.52784505196320       -2.11291593162196
H            7.25743176003900       -7.41672745268824       -0.92027104191425
