78
 energy: -15.698619645824 gnorm: 0.000600103719 xtb: 6.5.0 (97a52f5)
C            1.27628598754591        0.52251652260815        0.32671241912442
C            2.77575145650494        0.64935217058775        0.10649274474524
C            3.23527907820128        0.03578281090599       -1.21704107689473
C            4.74064650241976        0.16723419190933       -1.44761394014068
C            5.19916330924169       -0.44487995148049       -2.77007852724134
C            6.69109005067874       -0.29131748169395       -3.01502370483852
N            7.09690773681254       -0.87304697391101       -4.28477274926543
C            6.82593539195550       -0.14718396428643       -5.45353105363771
O            6.28927016161885        0.94744179780627       -5.41004275438107
C            7.20805157544161       -0.75310833109589       -6.73570397046540
C            6.96853388407466       -0.08587722312613       -7.91248104348782
C            7.32766823965005       -0.64476947551386       -9.13228748059963
C            7.92649569180852       -1.87000576881471       -9.17705726653084
C            8.19928472962713       -2.60563445782245       -8.00616709248020
C            8.83181487201701       -3.89742300402037       -8.02451540245376
C            9.23324952922281       -4.54072688082158       -9.26181899056671
C            9.86833213074902       -5.75137878629005       -9.40011894198435
C           10.12079393866984       -6.13585342663732      -10.73703635844453
C            9.68571030781396       -5.23410464605752      -11.67246766444902
C            9.78533199848835       -5.35796739880692      -13.11094380667855
C           10.39880107752158       -6.42695322046733      -13.80295172791228
C           10.27095169859244       -6.15918687537404      -15.13759808080333
C           10.76747391357936       -6.95706056361303      -16.25820245606051
C           11.01269561778674       -6.38145492374560      -17.50465892983686
C           11.49286368814585       -7.12968502097195      -18.54814284250418
C           11.75511719682614       -8.49553287701069      -18.40011840536523
O           12.24314257346925       -9.18550923955803      -19.51361238395324
C           12.48075504954292      -10.55855618848430      -19.30194203050306
C           11.51087379345555       -9.07208664906115      -17.14889805543575
C           11.03107695013394       -8.31946664067177      -16.10598098286404
N            9.56838440557920       -4.94175370521172      -15.18229453434144
C            9.10564253431711       -4.27745189718124      -16.38075831227191
C            8.12236053917980       -4.85622285421559      -17.16955427392396
C            7.69140757393977       -4.22624151160543      -18.31609810442846
C            8.23596692827255       -3.01152914057464      -18.68288617948971
C            9.21002318813967       -2.42570830233318      -17.89870625439596
C            9.64174075242818       -3.05388201896037      -16.75124544764825
N            9.28977238818940       -4.47005669976893      -13.96988807058248
S            8.96793144011811       -3.87399245160489      -10.85729045937259
C            9.04991380826313       -4.53483583984042       -6.81168367631530
C            8.67776724463449       -3.96541882672998       -5.60675902719212
C            8.07267300449579       -2.73076261372019       -5.55812472642872
C            7.82709943329258       -2.02961314593440       -6.76390772125606
C            7.68439198876088       -2.14723796831877       -4.27087187089916
O            7.86661907245913       -2.74977827047135       -3.22505252313285
H            0.96268549136187        0.96509446318614        1.27437915417919
H            0.96613187683773       -0.52359514787477        0.33387703788380
H            0.71768844984943        1.01891490137596       -0.46840666248356
H            3.31999139387436        0.17532381866156        0.93362790728667
H            3.07332426530143        1.70551763405289        0.13849562523006
H            2.69424703035879        0.50549908983231       -2.04700324485148
H            2.94855202984124       -1.02188128882528       -1.25151044750776
H            5.28300743685991       -0.30134380836386       -0.61798430051383
H            5.02594148684342        1.22530518563133       -1.41493141471928
H            4.65180294053054        0.01336675328397       -3.60208672979175
H            4.93411842753599       -1.50790191412129       -2.80247899049840
H            7.26614393275938       -0.76883839122821       -2.21519051892278
H            6.97470421552409        0.76589451423645       -3.01771300129180
H            6.49654329121256        0.88074767242098       -7.87352800250670
H            7.13252979429448       -0.10611574105540      -10.04500684759029
H            8.19842506150639       -2.28451743884375      -10.13816510376000
H           10.15380989561393       -6.37030433307391       -8.56464814762843
H           10.60444344762009       -7.06367227913294      -11.00025064686333
H           10.89482983383557       -7.27435166910068      -13.36343878970524
H           10.82590049628764       -5.33195793040686      -17.64060345432448
H           11.67862023482665       -6.67733169795349      -19.50608134129839
H           12.85079217944144      -10.99433319023458      -20.23099037958666
H           11.55243439073138      -11.05901563077345      -19.02308014451490
H           13.23515639321890      -10.69054033352476      -18.52510583020860
H           11.70071468004857      -10.11910803792851      -16.99909964401692
H           10.84327254767394       -8.78346293089558      -15.15346081468076
H            7.70673256917030       -5.80345169501854      -16.87297731928931
H            6.92947583403050       -4.68185396281275      -18.92690265559400
H            7.89882964140607       -2.51947882250349      -19.58036811205172
H            9.63210914938346       -1.47618581386513      -18.18409411145430
H           10.40015824876185       -2.60839491477896      -16.13153861879878
H            9.51766842838728       -5.50258024583157       -6.80339280997149
H            8.85705247135864       -4.48599909256432       -4.68165790261359
