80
 energy: -16.496706788631 gnorm: 0.000760179706 xtb: 6.5.0 (97a52f5)
C            1.35701323020976        1.06330241155856       -0.78308693458156
C            2.82463784261558        0.71329719785707       -0.59134711907604
C            3.21517721288048       -0.59686555710218       -1.27645533468687
C            4.69029534419206       -0.95330724318202       -1.09410243577327
C            5.07703437302257       -2.25893466563902       -1.78605048118722
C            6.54269971948377       -2.61955505047203       -1.61157863336420
N            6.87267040014353       -3.87094009343153       -2.27458363677606
C            7.33294800864088       -3.81420247374504       -3.59823627049658
O            7.49087325942530       -2.74859599207962       -4.17043649713094
C            7.61615400469294       -5.08747822418876       -4.27569905359049
C            8.08426640299257       -5.09235240373978       -5.56683978739898
C            8.35132162169138       -6.28847209257149       -6.22121437771905
C            8.14796069353372       -7.47911723413024       -5.58751335393274
C            7.66689166797675       -7.54294697412414       -4.26332995918543
C            7.43560360082318       -8.78348795042784       -3.57119647944789
C            7.67332221802196      -10.06976044642276       -4.19879241981037
C            7.51063699192871      -11.31202627188793       -3.63758520032291
C            7.79985182742288      -12.38536260174148       -4.50576669611579
C            8.18525706973993      -12.00898773245194       -5.76756094985188
C            8.48093246427160      -12.92549801295549       -6.84237630969118
C            8.62825085181153      -14.28491567745351       -6.76052526091178
C            8.84702503393027      -14.75847835351078       -8.07357610920799
C            9.04887048118935      -16.16338912887161       -8.44265433144069
C            8.88874597800107      -17.15069123066634       -7.49163900198506
C            9.06676687945860      -18.49927144554427       -7.79338186509494
C            9.40893748030902      -18.88647636851283       -9.05332445435774
C            9.58916008093991      -17.92852856909221      -10.07303565940612
C            9.94731889821754      -18.31223924710078      -11.38558817361946
C           10.12523197025074      -17.37982202553382      -12.36171249620734
C            9.95354429370430      -16.02289342982935      -12.07530528235093
C            9.60572669034041      -15.62550734844808      -10.82001670325866
C            9.41005753339945      -16.55407454188895       -9.77628768993675
N            8.82509504081797      -13.74115446480976       -8.93445861809050
N            8.61155584065261      -12.64832790073554       -8.21292755355726
C            8.51715421671720      -11.33626091035638       -8.80937669843420
C            7.43912847628375      -11.00953641694170       -9.61712247637224
C            7.34436376178229       -9.75202523092934      -10.17162199044719
C            8.32745403812533       -8.81367501495876       -9.92657289986329
C            9.40768407461512       -9.13612579896841       -9.12944323321421
C            9.50375638277560      -10.39223281299251       -8.57495340560101
S            8.23539558221897      -10.26057681326017       -5.84132537730724
C            6.96189516494040       -8.72850940607964       -2.26910458800530
C            6.70837245371524       -7.52602941836674       -1.63253855820039
C            6.91636742604989       -6.32496632557039       -2.26901775166908
C            7.40058047635164       -6.31704583112046       -3.60021301370282
C            6.63451317903094       -5.06393429984049       -1.57594155533159
O            6.20439645534049       -5.05535956772969       -0.43367566229010
H            1.09054736708324        1.99883641587326       -0.28686423804884
H            0.70967435017168        0.28213546305787       -0.38110651789629
H            1.11272641355156        1.17138810758113       -1.84116583789133
H            3.06023970274311        0.64672194808589        0.47873796727429
H            3.45878123639015        1.52427734747885       -0.97239745880894
H            2.98161799293972       -0.53587980233465       -2.34595146348229
H            2.58999688101750       -1.41228263873694       -0.89388342187825
H            4.92367124987820       -1.02066529148655       -0.02490130128543
H            5.31630486203120       -0.13697569228146       -1.47334130387513
H            4.84611910408884       -2.19680021643051       -2.85581530149199
H            4.45771296850008       -3.07978325867159       -1.40602089183259
H            6.79338517974979       -2.71593338442317       -0.55040840319870
H            7.18671361422652       -1.83255051119295       -2.01667542260896
H            8.23928123101134       -4.15124153055613       -6.06572686053771
H            8.71749261662952       -6.27288712002466       -7.23456487027659
H            8.35990101484367       -8.39528284201192       -6.12356021730054
H            7.18064040115322      -11.46692096380812       -2.62291173995136
H            7.69581869741637      -13.41840901088658       -4.21243261802830
H            8.59731328556351      -14.86782058117264       -5.85727658287504
H            8.61068814491387      -16.87645674179763       -6.48992942563831
H            8.93058454442610      -19.23977799116837       -7.02223872449897
H            9.54555060832263      -19.92866124462608       -9.28482180556323
H           10.07881466879307      -19.35798330408733      -11.60383081082698
H           10.39844395454039      -17.68543475217097      -13.35835342590434
H           10.09645017534010      -15.29096405377791      -12.85336387576864
H            9.47240719297334      -14.58185552899663      -10.61458278972730
H            6.67938177872542      -11.74984581822216       -9.79709082013023
H            6.50238827139118       -9.50064741895441      -10.79553681287100
H            8.25196835034766       -7.82942625335130      -10.35882047307688
H           10.17492926144851       -8.40372444918087       -8.93884844583492
H           10.33885082387695      -10.65479178393232       -7.94884287019661
H            6.78048397741984       -9.64420118697841       -1.73599988306432
H            6.33943338379679       -7.51496692094343       -0.62130101297065
