74
 energy: -14.273218338749 gnorm: 0.000334157332 xtb: 6.5.0 (97a52f5)
C            1.98491292013991       -1.19349100549015       -0.55583622142501
C            3.27232922865292       -0.39125902171601       -0.66828284262579
C            3.50814273766382        0.52428073853170        0.53434507235632
C            4.79988495346228        1.33438045005523        0.42539813965437
C            5.02956682951096        2.25900500434531        1.61980138370524
C            6.30421215892835        3.07799243088190        1.50427951563075
N            6.48487673133096        3.96470577510489        2.64201072535758
C            5.74319812544949        5.15411518318905        2.66671039695715
O            4.97806205867360        5.44252151087376        1.76215108885982
C            5.92082260992574        6.04308250040832        3.82218460232096
C            5.25785205292927        7.24453146616335        3.87868564906252
C            5.44208139611769        8.10929387138298        4.95153900786406
C            6.27409219099554        7.76777807864114        5.98021360478626
C            6.95461996280407        6.53433987339483        5.99142321586035
C            7.83621483011155        6.14440414110487        7.05691356244859
C            8.00865729232358        6.93663774260607        8.27051428634398
C            7.03821776993057        7.61609196138421        8.96468284581407
C            7.51086303431645        8.29095732970325       10.10862505468244
C            8.85544432026063        8.13939093661821       10.31720652532593
C            9.62651147063496        8.68112151393801       11.34612655149949
C            9.29615652740785        9.42205182041774       12.43797652390202
C           10.31788879545567        9.80001925742998       13.29313863070914
C           10.08831143675535       10.55443762810815       14.52608374891095
C           11.18213155956196       11.05755904987010       15.22710244821662
C           11.01341964385565       11.77449005404089       16.39043665830941
C            9.74425358108374       12.00232130091575       16.88184066224223
C            8.64681457576106       11.50798566208406       16.20621887162618
C            8.81327095720342       10.79074008180528       15.04180216185430
N           11.60225650036730        9.46942396068311       12.95816354431583
N           12.19471053098851        8.91712396938227       11.88297632605072
C           12.25069677120088        7.55208219839295       11.72208513498503
C           12.72908860101747        7.00434672196618       10.54182008251267
C           13.15550845748575        7.83184149660554        9.56609726035248
C           13.11441230545405        9.14049899386088        9.73718228573044
C           12.64260999303430        9.66202657913592       10.86141970603460
C            7.36857136555569       16.23495607167654        5.00085435395054
S            9.54582972910595        7.12912781033291        9.08290882884295
C            8.55090262247217        4.96424966280225        6.92310558526832
C            8.39192313702047        4.13389976805734        5.82719236837564
C            7.51951862264565        4.45647093806817        4.81291799189270
C            6.79316358133602        5.67180356437309        4.87752578799304
C            7.35416409623817        3.55885874965996        3.66572782282320
O            7.95176227849255        2.49682918545881        3.60496246260559
H            1.82895726233566       -1.84063830746489       -1.42146745686551
H            1.11703268139051       -0.53681171498263       -0.47584497245226
H            1.99210442048595       -1.82795522363302        0.33197950798616
H            3.26175156709811        0.21173684684493       -1.58567320382920
H            4.12955831411674       -1.06762048034929       -0.78217555388790
H            3.52437872480581       -0.07251455689881        1.45402620184990
H            2.65628947310222        1.20485606765256        0.65022586692275
H            4.78541090355555        1.92552041689158       -0.49790775785699
H            5.65334917443759        0.65470394547619        0.31723733050140
H            5.05722260238453        1.67474789155353        2.54685346756221
H            4.17735184370207        2.93934891248904        1.73347095388073
H            6.28916042610348        3.68903237898940        0.59609121328111
H            7.18032360905373        2.42545565976809        1.43145674544739
H            4.60321083558135        7.51279924173655        3.06724101586089
H            4.93049156301171        9.05770529118517        4.96527710765125
H            6.44100680067886        8.46762944059307        6.77823079737642
H            5.99550181068571        7.59382010700466        8.68841856049574
H            6.87671843717379        8.87186221039887       10.76001324910186
H            8.27347340625163        9.68724937404507       12.62339360169868
H           12.16834818792945       10.87412972092244       14.83804790730182
H           11.87208070387232       12.15738202536891       16.91727906763787
H            9.61049865950470       12.56329727577982       17.79228826233556
H            7.65584479316083       11.68269603519529       16.59240154035969
H            7.94998875633168       10.40034286290632       14.53370548731900
H           11.88707866967192        6.90961417980899       12.50645988901385
H           12.76036225393082        5.93772330261805       10.39552937449033
H           15.38766173530867        9.85610837123729        2.81044327474621
H            8.82520577865544       15.87259702953343        3.87226237795813
H            6.32856700869406       15.99891139391813        6.54498093610231
H            9.22796225008837        4.68286190266475        7.71082868788761
H            8.94609900305189        3.21362341496320        5.75617508908148
