85
 energy: -16.462668108774 gnorm: 0.000271055458 xtb: 6.5.0 (97a52f5)
C            1.16166473353514       -0.61669814029202       -1.33832660487900
C            2.58621245297488       -0.42524752664658       -0.84143778093778
C            3.14717625321397        0.96009780098023       -1.16627358290635
C            4.57353689243550        1.16337092720194       -0.65561882387988
C            5.12390164361619        2.55665095088817       -0.95534914542798
C            6.51883793401369        2.78178037468030       -0.39464917617054
N            6.99044779002026        4.13965459766449       -0.62114014895151
C            6.37076318317860        5.17236556904242        0.09681504197771
O            5.47072817071800        4.94635814385876        0.88743884873103
C            6.84075893901083        6.54429950438982       -0.13969556371424
C            6.23801609283231        7.59986064976895        0.49741876773830
C            6.66141768987765        8.90451396315154        0.26922377439155
C            7.70655596432253        9.15407937633779       -0.57324826859629
C            8.38824690649290        8.10644008781643       -1.22462203636933
C            9.50603720199477        8.33205410171910       -2.09955210469544
C           10.13542897015390        9.64011633841567       -2.24978366217254
C           10.30337812983400       10.58753541723062       -1.26992083087939
C           10.94002674644305       11.76430271080241       -1.70421016578810
C           11.30462685945252       11.75470262808228       -3.02823287656444
C           11.95042153807049       12.83371563617552       -3.76695648665122
C           11.62678779201977       13.01409653678321       -5.10176955046922
C           12.10121353033284       14.09233053974449       -5.83074669890744
C           12.91540635942437       15.03728230556337       -5.25160399389650
C           13.31487660635054       14.87877249399915       -3.90121721494852
C           14.17268098015481       15.82983107096260       -3.29121259436237
C           14.60616735199371       15.62772784043210       -2.00490272861050
C           14.22358637890950       14.49498279505348       -1.29480031047846
C           13.38005381573152       13.57951840111636       -1.85610002672895
C           12.86906469077242       13.75666699388498       -3.15777054227477
C           14.59229839647731       17.02658078147860       -4.03376222807454
O           15.28904814848842       17.87734686375796       -3.50754169943022
N           14.16396056622015       17.15082718420953       -5.36324152048683
C           14.56598537599763       18.34169286159366       -6.09693864431096
C           16.05766213795751       18.36698749894533       -6.38791159443439
C           16.50918147197363       19.64795817756493       -7.08752557262014
C           18.02025702857803       19.71027917116562       -7.30882849385090
C           18.47344311243017       21.00716679764052       -7.98129651812423
C           19.98034758551510       21.07713594177590       -8.17413918211999
C           13.37172656192725       16.19911890823983       -6.02406887961057
O           13.06368822737576       16.33442493272994       -7.19648264586249
S           10.82776470207538       10.23332556848819       -3.73766954671042
C           10.01914607747524        7.25434603631773       -2.80211929773107
C            9.53016856451803        5.96957673475755       -2.62926597831774
C            8.50686509426107        5.71137447726399       -1.74733097974072
C            7.91648414338430        6.78347444090395       -1.03300263829765
C            8.01996269079982        4.34004521705642       -1.55386477269735
O            8.49879750102063        3.40884277307528       -2.17938105846246
H            0.77466949860791       -1.60929394369730       -1.09938957036010
H            1.10149893777460       -0.49209289323978       -2.42057279684723
H            0.48692365499475        0.11511705048386       -0.89149022354001
H            3.24277569702859       -1.19206459656991       -1.27231366835746
H            2.63149944873040       -0.58861948884980        0.24310859605190
H            2.49219468384179        1.72924538782539       -0.74035552022904
H            3.11611667375401        1.12619375977330       -2.24944867974902
H            5.23433906396868        0.40415420374178       -1.08989675545754
H            4.60306058609574        0.98420804998530        0.42558979407644
H            4.44981403341055        3.31618215325291       -0.54253531265011
H            5.13059786385866        2.73545032620021       -2.03656865112634
H            7.23421108581146        2.08405106855271       -0.84152430946559
H            6.53247815605588        2.59677623502265        0.68402555596697
H            5.41970667027192        7.40123422011671        1.16789661599082
H            6.15623512387420        9.72158136428104        0.75754475445416
H            7.98824849803072       10.17096168029511       -0.77550687254181
H           10.01084258689568       10.42851114306534       -0.24353853571633
H           11.07279107415189       12.62232995318364       -1.06377206975113
H           10.95728791162355       12.31136372184876       -5.56617962236032
H           11.81737663265674       14.21890632834998       -6.86130570796484
H           15.26064296041559       16.35651186755698       -1.55863277225481
H           14.59969176246817       14.34000592822149       -0.29690411641967
H           13.13662554743868       12.68532404559852       -1.31238963315649
H           14.27730067590566       19.21472863325420       -5.50324598820877
H           13.98906541344638       18.39063565738307       -7.02599234928286
H           16.32929498689263       17.49188308042426       -6.98906053494524
H           16.60413113738360       18.24926444323768       -5.44496964533105
H           16.19124442342693       20.51626587054194       -6.49851155389304
H           15.98935910209114       19.74743412285508       -8.04751121584536
H           18.34137046323088       18.85095107140992       -7.90900567675373
H           18.53602135835199       19.59685160654887       -6.34805806889754
H           18.13065846324850       21.86256040402182       -7.38479811888447
H           17.96349692391542       21.11158644473804       -8.94762655612094
H           20.50306264059463       21.01243949220558       -7.21855801850319
H           20.28869616346710       22.00768282252768       -8.65492941059740
H           20.33730990177449       20.25284395958244       -8.79344712863326
H           10.84067788501395        7.42564526151547       -3.47554332177144
H            9.95926332508644        5.14684310895521       -3.17480717355747
