54
 energy: -10.527297085882 gnorm: 0.000582215801 xtb: 6.5.0 (97a52f5)
C            1.06997195117566        0.79745331555609       -0.36645361736921
C            2.45455780475293        0.24960177357854       -0.05810802041046
C            3.03131044836846       -0.58349307978969       -1.20367560784264
C            4.41422236599761       -1.15527304374599       -0.89254228006969
C            4.98035622655475       -2.00070141883620       -2.03186999953851
C            6.33980219389200       -2.60102308677811       -1.71512831318165
N            6.83724983628458       -3.42009446726991       -2.80872964182739
C            7.72025518800969       -2.83168793341734       -3.72556936924422
O            8.09112001002862       -1.67716958254776       -3.59832010907337
C            8.18192017546150       -3.65659456182086       -4.85135115569734
C            9.02863948321014       -3.12874710375761       -5.79414570584535
C            9.45103214658442       -3.89032955513883       -6.87833540878394
C            9.04368981399438       -5.18690927757021       -7.01361835788251
C            8.20055964113384       -5.79162265094070       -6.06036057991773
C            7.75369253916953       -7.15272724034070       -6.17048869828532
C            8.22304834581372       -8.06418673848635       -7.20975544686777
C            9.48692548180622       -8.15578849017227       -7.73618098943862
C            9.62955681274186       -9.15030454029054       -8.72618834924150
C            8.48204509771013       -9.85540552001993       -8.98130130225275
C            8.32822186156700      -10.92559361956756       -9.93448995049589
C            9.28882080675659      -11.40113209065504      -10.78368654132809
C            8.84580718130271      -12.46724429819761      -11.61081054261483
C            7.55540207611691      -12.81117074925747      -11.40153585036493
S            6.84865579990904      -11.82404065811021      -10.17389099391988
S            7.20220186402855       -9.26591801768104       -7.95933842282632
C            6.83400733769887       -7.62076071744977       -5.24680675676557
C            6.38200976640239       -6.83461205992294       -4.20073634378898
C            6.82774353056636       -5.54380610360285       -4.04049210908138
C            7.74192659845760       -4.99968835627672       -4.97690786707954
C            6.34648704582815       -4.72945608200636       -2.91941987976745
O            5.54576870633164       -5.17652042002249       -2.11481617703626
H            0.67029629917921        1.38935048445631        0.45938242161490
H            0.36266772436370       -0.00885417758751       -0.56486540912986
H            1.08678402152648        1.43600987637510       -1.25054666007718
H            2.42325942306322       -0.36112517156889        0.85319675324180
H            3.14307163073729        1.07201035725884        0.17417661085849
H            3.08087849766976        0.02576002125709       -2.11368697290812
H            2.34237702634646       -1.40141047341264       -1.44493561801047
H            4.36432827432643       -1.75867891725760        0.02134336899088
H            5.10778067150751       -0.33896328812120       -0.65944233947045
H            5.05419978170219       -1.39826836939438       -2.94451963901506
H            4.28191562340869       -2.80920777524515       -2.27705871071683
H            6.28623687705084       -3.22547984475148       -0.81776926660635
H            7.07310713835635       -1.81503448846671       -1.50860687076326
H            9.35028888056133       -2.10713027289625       -5.68723124605996
H           10.09813350255854       -3.44946775083542       -7.61870639871480
H            9.34141627945045       -5.74516810415950       -7.88180199813340
H           10.31385082136135       -7.55814828773449       -7.38551983604631
H           10.56285252958105       -9.34615922252810       -9.23038168612032
H           10.29060603214296      -11.00332103292385      -10.82300121040528
H            9.48144588698344      -12.95468083830856      -12.33582673775939
H            7.02616525084655      -13.58965680446798      -11.91770600660962
H            6.48251931182223       -8.63332652736437       -5.34164325883226
H            5.67676037779160       -7.22857301779414       -3.48937490150710
