50
 energy: -9.511385323849 gnorm: 0.000502015554 xtb: 6.5.0 (97a52f5)
C            1.13275846425760        0.47194184681157       -0.57317161327410
C            2.63505390138111        0.28920223859634       -0.42161706930422
C            3.00651143309180       -0.61406091033254        0.75538441572054
C            4.51493842085793       -0.80406903226347        0.91366684336792
C            4.88268005848530       -1.70454553760085        2.09166729390274
C            6.38074070930048       -1.90219566047469        2.24971998710302
N            6.69841742907358       -2.76003390458935        3.37996317773828
C            6.93053586991213       -2.15175512707008        4.62231161372084
O            6.87683320686706       -0.94101531383588        4.75578200530381
C            7.24266586653254       -3.02731164630672        5.76166198534650
C            7.54667666040900       -2.48853132653356        6.98683999431894
C            7.86787565816448       -3.30603610190940        8.06594819030164
C            7.86811091012050       -4.66415636443358        7.92813131913491
C            7.53624298630061       -5.27333388461725        6.70102498523734
C            7.52448790593994       -6.69733532732065        6.52346964518853
C            7.76388503112232       -7.63060770522649        7.62611824957388
C            7.27006647648861       -7.54449308204781        8.89814761462617
C            7.67600656271052       -8.60604871592773        9.74703295823701
C            8.47430994276815       -9.52293207282131        9.14222787024560
C            9.05081653664906      -10.71895098540968        9.78654094503680
S            8.73631727083270       -9.07533433953907        7.48362665779679
C            7.27893829296629       -7.20349386323275        5.26035252470901
C            7.00502436485177       -6.37592526847259        4.18230678907682
C            6.97348738652673       -5.00974020227867        4.32724617251645
C            7.24362743933715       -4.43644677835060        5.59514243989713
C            6.68084529479022       -4.14791770990660        3.17525769588680
O            6.42967803935114       -4.62407940870885        2.08064473835136
H            0.88148972752847        1.11838370833935       -1.41649488816143
H            0.69738045326602        0.91671712846663        0.32304549059616
H            0.63336041184137       -0.48501508032994       -0.73267142876915
H            3.12317914142077        1.26457532423755       -0.29771947735440
H            3.05966232308839       -0.12580155274654       -1.34489823850794
H            2.52373670871371       -1.59109772387349        0.63538975929987
H            2.58897572328583       -0.20147383551080        1.68138214032501
H            4.99875838336101        0.17252086986246        1.03263418983079
H            4.93260016875511       -1.21955164358953       -0.01092047994967
H            4.40153181830636       -2.68288569331673        1.97794790177034
H            4.47413833049056       -1.28976362417860        3.02034282612544
H            6.88486067441358       -0.94127246986186        2.39386353790727
H            6.80914383707267       -2.35000200802074        1.34742029451855
H            7.54514950332796       -1.41779710653030        7.09649228177359
H            8.12472358809798       -2.86103217281305        9.01324472695633
H            8.15359332331397       -5.28108616152248        8.76024993974028
H            6.59980402729962       -6.76104003607292        9.21641952046802
H            7.37666826372488       -8.68452476536909       10.78113333282731
H            8.34755906827832      -11.15983614615255       10.49418226525915
H            9.96309835715910      -10.46547749095361       10.32784054925476
H            9.29929612029775      -11.47704388879468        9.04296095085966
H            7.28741468442537       -8.27089484369175        5.12429870057036
H            6.80801324345225       -6.79604460376498        3.21112867489577
