47
 energy: -8.981424870382 gnorm: 0.000968056214 xtb: 6.5.0 (97a52f5)
C            0.93257841149806        0.04110764897085        0.02588521016494
C            2.45344479075713        0.03214604779734        0.03977959824484
C            3.05864402862769       -0.22254921195004       -1.34191551315116
C            4.58706496631639       -0.25018064005972       -1.32989351980536
C            5.19249492850050       -0.50902106908523       -2.70862724619105
C            6.71048004082052       -0.58103095368805       -2.69076462701232
N            7.25903124606059       -0.84732163576037       -4.01109739671027
C            7.83650596550290        0.21870278275546       -4.71504643483838
O            7.88971031885977        1.33965781763427       -4.23711871886761
C            8.37435962307996       -0.06044877171612       -6.05288873669710
C            8.93401596277154        0.94931745180556       -6.79758956430803
C            9.41401497473290        0.70523782311218       -8.07786006390705
C            9.35820014704288       -0.55249967629390       -8.61061598620703
C            8.83068561862701       -1.63430018625262       -7.88011103883053
C            8.75862016704632       -2.97122720206716       -8.40741412503026
C            9.36236575412619       -3.36495563535528       -9.66964047278058
C           10.51774305827249       -2.87923264157971      -10.23532740463657
C           10.84981732765294       -3.47266953472354      -11.46998163779225
C            9.96054075466891       -4.43116258572446      -11.86857780470975
Cl          10.10587526504780       -5.32051099138610      -13.32904186791996
S            8.69172715269381       -4.61858592165504      -10.71072440442923
C            8.09022472946213       -3.93548926303161       -7.66428300973803
C            7.56502589677822       -3.66325085525405       -6.41560690701237
C            7.67424127296404       -2.40905297405872       -5.85725811128139
C            8.30052761994095       -1.37092923140394       -6.59056415723571
C            7.13099980132390       -2.14661052493509       -4.52291496744801
O            6.58411077452694       -3.02897359566423       -3.88111075193887
H            0.51542950071754        0.22504517524122        1.01794957100054
H            0.53637242801930       -0.91288147205030       -0.32535281900185
H            0.54919686443703        0.81502355265626       -0.64074188990714
H            2.81874143228154       -0.72946381855627        0.74076794200973
H            2.83261370162385        0.98499280912387        0.43100698922112
H            2.70955125992169        0.54378598153632       -2.04382271976357
H            2.67778773557660       -1.17032396730636       -1.74004487345755
H            4.93388351085787       -1.01770834780988       -0.62815660259861
H            4.97018425031422        0.69668423789720       -0.93201774470310
H            4.87396468098175        0.26983500687038       -3.41084891320454
H            4.79710768009211       -1.44569603172807       -3.11858029264637
H            7.05094163297640       -1.37287119820984       -2.01614167173533
H            7.13906375447168        0.35550214924031       -2.31971067850491
H            8.97763306953941        1.93944188424916       -6.37736197509542
H            9.82425189600461        1.51652877440070       -8.65652114252789
H            9.68058816456405       -0.70790620078971       -9.62335578565631
H           11.15465720792987       -2.15789492571433       -9.74738976817937
H           11.72697929136520       -3.21677092551392      -12.04494548513421
H            8.01201871099880       -4.92969571710512       -8.06809592520013
H            7.07018262962604       -4.43576343685942       -5.85244655484096
