51
 energy: -9.652867211303 gnorm: 0.000667307249 xtb: 6.5.0 (97a52f5)
C            1.04663759937276        0.62985795979637       -0.02437155619769
C            2.51847711930765        0.27486728955797        0.12024048483177
C            3.05576051463635       -0.52268082678013       -1.06904012923861
C            4.53078982285065       -0.89664822016524       -0.92328548179196
C            5.06394955668575       -1.69614356713229       -2.11067697629957
C            6.51764152751939       -2.10958185178977       -1.95164062229116
N            6.98874792001642       -2.88245390001378       -3.09001483423116
C            7.78315641474176       -2.23516106302695       -4.04698115451080
O            8.09970735787496       -1.06416462150474       -3.92033453725399
C            8.21787938152522       -3.01633991227710       -5.21225970761272
C            8.97394261166877       -2.42699347039629       -6.19656034048694
C            9.36207787953985       -3.14576035754639       -7.31976321663768
C            9.01966649525493       -4.46281514708661       -7.45254006462130
C            8.28334004386587       -5.13184514548423       -6.45634598612251
C            7.91473013170389       -6.52015268210090       -6.55568806912611
C            8.40575042886439       -7.40964232333723       -7.59296278640529
C            9.61400672931716       -7.36535256007319       -8.24433342140470
C            9.80455854554924       -8.39038784194456       -9.18772389749639
C            8.74757975088323       -9.26894442917656       -9.29630364967807
O            8.61818178508052      -10.37208709474223      -10.11060030970528
C            9.74926237103473      -10.61816430627841      -10.91732094248851
S            7.49523418220630       -8.78916368699380       -8.18441490326910
C            7.05987966727805       -7.04204395147221       -5.59243297342174
C            6.62437190465700       -6.29398569608974       -4.51612685911439
C            7.01665230620585       -4.98317944328377       -4.35728483799966
C            7.84571448117351       -4.37960593999751       -5.33503855030252
C            6.56067700424161       -4.21378063022008       -3.19807219797260
O            5.83049554320598       -4.71390164881485       -2.35727875165748
H            0.67669496338947        1.19865371082275        0.83101536365569
H            0.43186978639121       -0.26719655209020       -0.11290372948455
H            0.87179257131469        1.22989446781790       -0.91868129421066
H            2.67890286147316       -0.29816531574629        1.04259758642462
H            3.11641365087134        1.18691742789583        0.24457779238028
H            2.91059201033193        0.05027180739697       -1.99234674914570
H            2.45796624252184       -1.43224027594059       -1.20067469766609
H            4.67383617740806       -1.47131246542033       -0.00072510064692
H            5.13098753434148        0.01113995796074       -0.79131545566168
H            4.95057730239958       -1.11684451214700       -3.03413914710179
H            4.45303178154961       -2.59437701594772       -2.25816410521838
H            6.64984471210622       -2.71626152478911       -1.05028554049849
H            7.16115098431001       -1.23133110331712       -1.83804646494113
H            9.24495648584114       -1.39071233079483       -6.09055713337079
H            9.92913344737017       -2.65677302676540       -8.09491304187000
H            9.27574610474114       -4.98228276702196       -8.35703055463751
H           10.38690322857444       -6.65359284618264       -8.00076174194121
H           10.71015817448336       -8.48888368245718       -9.76409125285273
H            9.56505472288578      -11.51483314954394      -11.51089842373757
H           10.62467390335514      -10.78270851093750      -10.28716252721012
H            9.91764819625338       -9.77399635845026      -11.58769151279198
H            6.76112332170892       -8.07210432799879       -5.67803798609045
H            5.97869276011779       -6.73148653796825       -3.77419801088318
