49
 energy: -9.539655289538 gnorm: 0.000594475982 xtb: 6.5.0 (97a52f5)
C            1.05429678129775        0.57720348802562       -0.04398057789461
C            2.53793487698156        0.26219693294909        0.07474800344080
C            3.07717929882087       -0.52184518437202       -1.12328037096523
C            4.56471377944814       -0.85526698284256       -1.00191273180806
C            5.09958632271022       -1.64961419970832       -2.19280161253523
C            6.56519980129964       -2.02723430586448       -2.05313581915521
N            7.03351306679507       -2.80751423962542       -3.18745348725473
C            7.83425117621229       -2.16989365904809       -4.14440072408352
O            8.14665132873396       -0.99823460025426       -4.02670352057662
C            8.28290154337671       -2.96197802486935       -5.29689486542520
C            9.05377771513966       -2.38573872825416       -6.27547858263508
C            9.46557747047671       -3.12007076851042       -7.38220260172666
C            9.12506648507982       -4.43696188766391       -7.50396959188570
C            8.36205021704137       -5.08890373563691       -6.51508269639571
C            7.99104298997376       -6.47270564582906       -6.60768241896016
C            8.47048738741947       -7.35059337153865       -7.67278510468982
C            9.72745107205454       -7.38522190009411       -8.21729180871436
C            9.89088607444359       -8.36348066861754       -9.22347070950326
C            8.77151937178526       -9.09194196582593       -9.46001922643197
N            8.67134431896485      -10.16136836178998      -10.43652625311536
O            7.59803998121385      -10.77333859209602      -10.54607300625932
O            9.66670154166491      -10.42733217432285      -11.12840331355322
S            7.48427635532358       -8.57406213606182       -8.43243099460079
C            7.15051156560419       -6.99700879812124       -5.64104523793115
C            6.70560809333333       -6.23933692011789       -4.57061735203917
C            7.08066648772570       -4.92453434878878       -4.42943065366729
C            7.91280556917342       -4.32671655824820       -5.40790434808104
C            6.61044364708628       -4.14018029997532       -3.28397871636481
O            5.87303811965609       -4.62993473340476       -2.44596045703248
H            0.68500433209717        1.13598647326337        0.81813335411745
H            0.46274343070603       -0.33619010845780       -0.12146084887721
H            0.84766901462655        1.17235629037854       -0.93461224599926
H            2.72909294306508       -0.30569554412681        0.99425912327976
H            3.11235373252519        1.19043738891078        0.18829843935859
H            2.90107078744234        0.04598899846022       -2.04417263896323
H            2.50279218301602       -1.44773393883211       -1.24339469786181
H            4.73870288751557       -1.41959758380673       -0.07846077240615
H            5.14225012764519        0.06921038000107       -0.88688634286606
H            4.95851388906663       -1.07991705519891       -3.11835575212045
H            4.50988394730677       -2.56450420763786       -2.32409989906361
H            6.72690453178286       -2.61892806851526       -1.14664652028237
H            7.19150355869968       -1.13347425785947       -1.96618034992433
H            9.32426904288624       -1.34823746015567       -6.17695857434894
H           10.05090698946961       -2.64222535664112       -8.15036281579774
H            9.41490593618554       -4.97753610328355       -8.38617816005708
H           10.53606925867707       -6.76018256362098       -7.87083670412589
H           10.81676340250052       -8.53378995279342       -9.75230163761845
H            6.85812227072555       -8.02972821438635       -5.71924906332538
H            6.06223529522073       -6.67439674519469       -3.82491511327633
