60
 energy: -11.865270891633 gnorm: 0.000535402215 xtb: 6.5.0 (97a52f5)
C            2.14600272672819       -0.87601386484209        0.92747238685001
C            3.59491317772134       -0.64188037296589        0.52831403734237
C            3.73884504603351       -0.14672604440057       -0.91138729178310
C            5.19194900497680        0.07880597278482       -1.32972605829914
C            5.32263212388411        0.57540093059231       -2.76816137484070
C            6.75959558380376        0.81979099437186       -3.19815971581719
N            6.83118399527742        1.27978573873007       -4.57558614751568
C            6.61918055083262        2.64631488997326       -4.81894255512845
O            6.45497906552221        3.43563345732938       -3.90429347911183
C            6.59032773674973        3.09282575009474       -6.21938419987915
C            6.39585614278543        4.41691013426203       -6.53178046961711
C            6.35396047233913        4.84325225570676       -7.85851997674959
C            6.50183244698637        3.94925605464005       -8.87905574932099
C            6.70294345180861        2.57860190166224       -8.60856541304347
C            6.86501428678623        1.62849584464984       -9.63342476250177
C            7.09021130796725        0.29944409397530       -9.34772181113110
N            7.31408662466853       -0.62652196662043      -10.37338677682150
C            8.37532113645451       -0.67292845199668      -11.09482944303974
C            9.55435846217818        0.13665734914541      -10.94894968782638
C            9.87664699083068        0.99172061722628       -9.90838767198825
N           11.08882778360784        1.58365124725552      -10.14767253083323
C           11.74367424229545        2.58178760865239       -9.30748220480936
C           11.58466864285586        1.11351249396264      -11.36806181336527
C           12.75967666451272        1.39581909355103      -12.07071684504106
C           12.97457890041083        0.76628045583446      -13.26904519012259
C           12.04179520701474       -0.14286393426771      -13.78599566003103
C           10.88445522092268       -0.43065508479728      -13.11060926059769
C           10.64538212805290        0.20298630958445      -11.88303669323597
C            7.12776497149701       -0.11274398523953       -8.00465746109512
C            6.96245237618039        0.77546791706167       -6.97605322615308
C            6.75292758545011        2.14856978458097       -7.26167884075611
C            6.99123946458168        0.31406977473457       -5.58149525381383
O            7.14076691896812       -0.86652839502966       -5.31651816219585
H            2.05620731496439       -1.22668491219389        1.95760468809925
H            1.67552678627369       -1.62152593497306        0.28435998982580
H            1.56014203213327        0.04036785976321        0.83995350303213
H            4.17448318992162       -1.56568654356531        0.65334530044232
H            4.06195734939905        0.08168479557914        1.20899722255325
H            3.17196386247577        0.78323094394794       -1.03786434205804
H            3.26740391364655       -0.86301506740826       -1.59461467575594
H            5.75989595527343       -0.85104761172536       -1.20800506233247
H            5.66506505568119        0.79554898378856       -0.64822968336229
H            4.74925401304569        1.50105434812692       -2.89537857811770
H            4.86018095814936       -0.14407751091895       -3.45380074364647
H            7.35372119535127       -0.09502233737280       -3.10678611757677
H            7.23429062938124        1.57050245999541       -2.55841988799385
H            6.27368055105184        5.12398094351555       -5.72957562381917
H            6.20158977054172        5.88736215875805       -8.07694677261257
H            6.46902205309323        4.28003700787969       -9.90254365413079
H            6.83981321999327        1.94399521035017      -10.65966114391314
H            8.37504577809318       -1.39471356073540      -11.89291393208049
H            9.27672664800887        1.18382915315854       -9.03873888578579
H           11.17518281242707        2.73493133329401       -8.39247650554772
H           11.81189093254873        3.52785643909986       -9.84045250376836
H           12.74584856497735        2.24884530131041       -9.04607440826632
H           13.47005439964246        2.09539720371428      -11.66809151857843
H           13.87424635423915        0.97326750146396      -13.82476461815731
H           12.23873430944887       -0.62133918581558      -14.73112326806229
H           10.16493003572120       -1.12488436288614      -13.50644171273656
H            7.29525187374188       -1.14945318638716       -7.77972776321544
