55
 energy: -10.948702348118 gnorm: 0.000447776522 xtb: 6.5.0 (97a52f5)
C            0.47147558528082        0.41290967567627        0.23196021221573
C            1.94259768553287        0.10228398823651        0.46100151560805
C            2.64286076875711        1.14605401254710        1.33333875698703
C            4.12421332414832        0.84091852699806        1.55470643605633
C            4.83771136481841        1.89349640406907        2.40229337394672
C            6.31820403313528        1.60265241540448        2.58311280264843
N            6.99996684471614        2.64230713842751        3.33851214226487
C            7.25433709960290        3.86076855368953        2.68980895056811
O            6.88152706207583        4.06117122577874        1.54709703391237
C            7.99447621022601        4.88958595554548        3.43568427089808
C            8.29541176668336        6.09807859274694        2.85642682213839
C            9.01741565882324        7.06761376264156        3.55171723096480
C            9.44633978169645        6.83177399492615        4.82513572654757
C            9.15978199495413        5.60581772250494        5.46324248295547
C            9.58871125701264        5.32532376257644        6.77207852808631
C            9.27853119674287        4.13413755854524        7.38661760645109
N            9.72983725908749        3.84538049563944        8.67499342031810
C            9.47828531372954        4.50404672869298        9.75234206229547
C            8.65664713220576        5.65801780329686        9.92834670366526
N            8.33341672056491        6.05963864613769       11.13321558626911
C            7.49774440931249        7.15614374245822       11.11317974935908
C            6.96301602523338        7.79673903055072       12.24048445987323
C            6.12744379911363        8.87194275207697       12.07444110504043
C            5.80215367620594        9.33157035115843       10.79965786158166
C            6.31544246325021        8.71570037179043        9.68343483260604
C            7.16455646387152        7.63022461799325        9.83956252501522
S            7.97947326754606        6.67765909383104        8.64056106711229
C            8.53914360481582        3.17250650612757        6.67534180791953
C            8.11537528291179        3.39623117311434        5.39379598736213
C            8.41772066727868        4.62845987834350        4.76108798663347
C            7.36872204925341        2.36224706277312        4.66326243365481
O            7.09185154537446        1.30038523465227        5.19288421758976
H           -0.01299794048940       -0.34015163742131       -0.39280790483242
H            0.34472375586210        1.37865807401381       -0.25967118881654
H           -0.07348735255779        0.45706117124434        1.17608845767004
H            2.46508403227418        0.02636786295282       -0.50139279072719
H            2.05155679661009       -0.88747008810303        0.92287176760216
H            2.13301514110875        1.22041140519710        2.30094571799825
H            2.53642390479576        2.13682575224095        0.87631991183847
H            4.62726249931838        0.75215078024331        0.58460455719619
H            4.23174541789593       -0.14398088893787        2.02405627043759
H            4.35866071694017        1.97505143969272        3.38461007785439
H            4.72307796489621        2.88163836420562        1.94168569338946
H            6.81256999447345        1.51510740158512        1.61044926816182
H            6.46530151183164        0.64718382496149        3.09686629099382
H            7.96618285772400        6.28311701661338        1.84850743329106
H            9.23981339930970        8.00821805744208        3.07535090923533
H           10.00491234950085        7.58033483929899        5.35957117799567
H           10.17500622258746        6.05095265835868        7.30528882754498
H            9.89201934920963        4.08508413906722       10.65447802361384
H            7.21658821384884        7.43259810475964       13.21994090667775
H            5.71728757671256        9.36748842784708       12.93892764205585
H            5.14457440426813       10.17796663284178       10.68966765157048
H            6.07529057271238        9.06410295053878        8.69393112822597
H            8.31048729730016        2.23461693243846        7.14637447243521
