83
 energy: -17.060078531517 gnorm: 0.000924661200 xtb: 6.5.0 (97a52f5)
C            1.26213983277457        0.01780994690629       -0.24980804606226
C            2.76967873014320        0.02851648820188       -0.04961221867666
C            3.22929712019799       -0.93937386167029        1.04170136832649
C            4.74300260695436       -0.92847190040225        1.25456918612774
C            5.19663955137785       -1.88756663376235        2.35405076606688
C            6.70257339229187       -1.86704575440928        2.58051257004892
N            7.12608762743283       -2.81515701901320        3.63497523584059
C            8.05007577007290       -3.84573096859025        3.31147267185481
C            9.05030025491997       -3.65326448252307        2.35497484303394
C            9.96017112789803       -4.64085686988449        2.05916726613433
C            9.92321844772663       -5.88031289262406        2.70613438886826
C           10.89313501212564       -6.94177822533700        2.42754989699517
C           12.02686118311889       -6.71519610454565        1.67183513383931
C           12.97548274594310       -7.70704671835818        1.40070432288365
C           12.86665023178256       -9.00036820453879        1.86802445833170
C           13.88226433082328      -10.01768943906293        1.55952638514804
C           13.57827386198705      -11.37837544669716        1.62566478369489
C           14.50974164000927      -12.33957665695795        1.30595620447211
C           15.78167821652760      -11.96587933539164        0.92182624928687
C           16.11470109485409      -10.62743248702948        0.86363708352137
C           15.18059116836118       -9.66511408587936        1.17786163153730
C           11.70348916478647       -9.31265746390880        2.66262653304781
N           11.40165478554084      -10.47182520489712        3.20927202248271
S            9.98408833740273      -10.30425047289969        4.02133407498044
N            9.71920929693676       -8.71867762860581        3.68781122355800
C           10.71361780222093       -8.27864885922352        2.94606012703202
C            8.91499344737685       -6.06374109269670        3.65856204791364
C            8.00638588270991       -5.08331588492616        3.96930422871894
S            6.79710781879900       -5.46700843811533        5.19449078501589
C            6.37338479615071       -3.84211142859074        5.73539773352359
C            5.83598079863352       -3.71707898167173        6.99222307781926
C            5.41993508708554       -2.48717279046018        7.51430559907252
C            4.82945011849098       -2.39936759493897        8.85192256287081
C            4.27196272348434       -1.22864689284485        9.32840161863734
C            3.70874379482947       -1.11256167419436       10.60366103549338
C            3.65340157871387       -2.15907970537318       11.50068036078304
C            3.07316403025398       -1.99331300571657       12.84144101389882
C            3.39427583270963       -2.87242045718869       13.87686851172955
C            2.89169190086457       -2.70357917189760       15.14664912488000
C            2.04005979361576       -1.65214707437450       15.41655670652233
C            1.69194963579491       -0.77688348673024       14.40760661504957
C            2.19887930829536       -0.94316334744215       13.13772528636980
C            4.21337922468072       -3.41750958409101       11.07015724900635
N            4.26213609050099       -4.54137030688574       11.75461679196569
S            4.98568897530474       -5.68224880193637       10.82113368742099
N            5.25604106133654       -4.75080799596625        9.49670426558359
C            4.79878515207473       -3.54031827094840        9.73880796362385
C            5.59218024749721       -1.36576473026064        6.69593275003255
C            6.13807960783539       -1.47602010919220        5.43914248792752
C            6.54191439627082       -2.71027066817524        4.92533162841392
H            0.94732987625468        0.71218839139171       -1.03162059290702
H            0.74049556373817        0.29742508451514        0.66704723695942
H            0.90893453458623       -0.97568842422774       -0.53089471963282
H            3.10999853045328        1.04228921800463        0.19873477170906
H            3.27765514539267       -0.21900447092280       -0.99083863537874
H            2.89965026473646       -1.95571096340430        0.79526536889198
H            2.72425238908979       -0.69678733905809        1.98428864354034
H            5.07338210565153        0.08884252603886        1.49575406163203
H            5.24986959916819       -1.17830669696332        0.31490794024992
H            4.88178584664935       -2.90917852146363        2.11078357987138
H            4.67685483194689       -1.64822533751232        3.28833270328108
H            7.04941083249457       -0.86427614237245        2.84338425290621
H            7.20418707529633       -2.12154975057882        1.64403103395004
H            9.13658374754080       -2.69660166430588        1.87139884828743
H           10.70574496637478       -4.45214242547529        1.30845723887334
H           12.20533587967574       -5.73002427650858        1.28196719408428
H           13.81582534400482       -7.45032826712375        0.78080730433386
H           12.59518080802646      -11.67372494136400        1.94051501249794
H           14.24732562078808      -13.38352570197009        1.36097242012158
H           16.51336393964477      -12.71705488766318        0.67294852168215
H           17.11058219053639      -10.33468076131550        0.57256755289409
H           15.46317042838421       -8.62772280200613        1.14977401003275
H            8.83006277006601       -7.00509082971805        4.16613090885123
H            5.73369282783842       -4.60640389165455        7.58307150208567
H            4.25751041571798       -0.36102329200756        8.69476232053944
H            3.32605492915702       -0.15329575326032       10.90322605270351
H            4.04523438361241       -3.69986423422629       13.66814040047058
H            3.16073518533105       -3.39376212400130       15.92944711017957
H            1.64498484621821       -1.51791905541372       16.41022761740116
H            1.01980467082180        0.03961521965476       14.61484638988678
H            1.89929583757738       -0.26492046268090       12.35894655305072
H            5.31284935960320       -0.39235340416409        7.05518652072668
H            6.27997061611712       -0.59117224250605        4.84487958159921
