84
 energy: -17.831320076421 gnorm: 0.000601077537 xtb: 6.5.0 (97a52f5)
C            1.07545212787568        0.15072514596376        0.19663678677095
C            0.26851128209961        1.22259008740677        0.08515514824133
C           -1.18065990675636        1.19659703898753        0.13525625664211
C           -1.89980327182717        2.36847944693866       -0.12637129194104
C           -3.27124908278138        2.38447554262832       -0.07951498756589
C           -3.99089254406638        1.23197710605321        0.23632837219248
N           -5.42009604068549        1.25063815052830        0.29457984584239
C           -6.17005918098166        2.12299655732214       -0.56699645903298
C           -7.30655893695670        2.77906252577361       -0.09966608367247
C           -8.02935013321083        3.60935366000016       -0.92676868111155
C           -7.63195600199875        3.79954434264714       -2.23616175758103
C           -6.50801541035127        3.15474572754035       -2.71544989057689
C           -5.78359526161390        2.32400520142611       -1.89014638445890
C           -6.11937274843584        0.40816357701673        1.22540724508482
C           -7.32036513656049       -0.20090968973429        0.86902621155885
C           -7.99723157359040       -0.99842498267294        1.76442911970044
C           -7.48841734377257       -1.20215806063427        3.03257900653398
C           -6.29928650129867       -0.60388659862788        3.40219110132697
C           -5.62072866404343        0.19409813037078        2.50845285872865
C           -3.27835412902045        0.06159435734949        0.49951957604847
C           -1.90640005736490        0.04172520953809        0.44977184665467
C            2.52516392362787        0.18244923527602        0.16565700723172
C            3.24326420717158       -1.01836191882071        0.16893914186105
C            4.61611258894654       -1.02533649142533        0.14462970089915
C            5.34569276809883        0.16835333480229        0.12313926225346
C            6.79529879337788        0.12245054165143        0.10455426100889
C            7.61099244447040        1.18849975968727        0.20861313820668
C            9.06045730278639        1.14754038917674        0.18421832707602
C            9.78705638712573        2.31455369707776        0.44706800167528
C           11.15929670980978        2.31462082183747        0.43016589962662
C           11.87244805994479        1.15025984041335        0.14467009291985
N           13.30281345203535        1.15092884727554        0.12377716212858
C           14.04119213860159        2.01794690668655        1.00058702483318
C           15.20340933543821        2.64914325829222        0.56321559517862
C           15.91635959551944        3.47233411058994        1.40585652644835
C           15.48318988744784        3.67989762771673        2.70119732030023
C           14.33329930269419        3.06001503595799        3.15083811273981
C           13.61859238716919        2.23655218918894        2.30988005362701
C           14.01527974779635        0.28536422172151       -0.77535593308689
C           15.19439620034301       -0.33936240521711       -0.37568213683468
C           15.88231313937264       -1.16183296028439       -1.23949432094186
C           15.40679632304993       -1.37522631921047       -2.51890585168349
C           14.23997193869461       -0.76128932203892       -2.93141171933734
C           13.55029293125643        0.06151791853801       -2.06928147606695
C           11.15249545434480       -0.01479965448777       -0.12208297448171
C            9.77967413161780       -0.01865595070913       -0.10244934675720
C            4.62800721759539        1.36971878367872        0.11912209568444
C            3.25426973919073        1.37661965628968        0.14017671875391
H            0.62745493198605       -0.81966287811684        0.30752976384587
H            0.71565652383274        2.18790662999525       -0.06453394558167
H           -1.36042772595000        3.26826728299820       -0.36870236444594
H           -3.80988289847666        3.29550996318649       -0.27312499994396
H           -7.60742616390835        2.63163352473939        0.92285847372429
H           -8.90612910734981        4.11201991488020       -0.55205096871029
H           -8.19850902926110        4.44929111517889       -2.88315406230843
H           -6.19862858489105        3.30125506504324       -3.73750800467742
H           -4.91426649002550        1.81003681145994       -2.26148987966080
H           -7.70895717840328       -0.04273831450096       -0.12182527408555
H           -8.92519717564947       -1.46449420534062        1.47558406588076
H           -8.01939837097792       -1.82582998941003        3.73315105152415
H           -5.90340187013733       -0.76019976375157        4.39247080608566
H           -4.70041509375531        0.67224534490692        2.79521085952437
H           -3.82500231920178       -0.83489717941770        0.73426536061993
H           -1.38479625893309       -0.87316771346634        0.66666194942342
H            2.70204713020310       -1.94895968362461        0.18835325630357
H            5.14828003515634       -1.96133476563520        0.14684657378027
H            7.23540699534066       -0.85391661459507        0.01826221827389
H            7.17075310154233        2.15999504843049        0.33720444664457
H            9.25284340695142        3.22290615988345        0.66802456298503
H           11.70412902504126        3.22161780680617        0.62542863501374
H           15.53248640878266        2.48816660541822       -0.44853052651566
H           16.81341814801600        3.95558696571456        1.05433243155685
H           16.04233909763329        4.32366080215685        3.36050202889592
H           13.99621049827743        3.21981461517959        4.16209941113438
H           12.72869987330823        1.74215901830518        2.65842425623901
H           15.55690459317414       -0.17355301992836        0.62376185424745
H           16.79267145313865       -1.64038531298907       -0.91696386017485
H           15.94602882225111       -2.01902696949106       -3.19452516310762
H           13.86997278546663       -0.92544693419047       -3.93039539112256
H           12.64727919746040        0.55140870347702       -2.38929734341790
H           11.69380286816438       -0.92020264618853       -0.33374576504156
H            9.25229120553267       -0.93006941335710       -0.32005847362260
H            5.15745126397411        2.30520500184098        0.09037715917523
H            2.73404330950051        2.31767539491463        0.14662733490094
