90
 energy: -15.983583442901 gnorm: 0.000684388676 xtb: 6.5.0 (97a52f5)
C            0.04591842269517       -0.51072931168006        2.13292281259583
C            1.54388084502494       -0.47588703198619        1.87217501577420
C            2.23746812814700        0.70555999452674        2.55238021469207
C            3.74344702213998        0.74695561379988        2.29286052371907
C            4.43783972344660        1.92118624413282        2.98061028096199
C            5.93517513810909        1.97150838609763        2.70446893392188
O            6.56249540812690        3.07600829533040        3.31975286750220
C            7.87307329262601        3.15902866481305        2.92977067837428
O            8.41012150096115        2.37243921726474        2.16502655967145
C            8.62719262021154        4.28030272539465        3.48248987622821
C            9.89569679824752        4.52425287152993        3.12657049044760
C           10.68343752481546        5.62167266794987        3.61049772617166
C           11.97787529482208        5.93928656600391        3.17421446407938
C           12.38922703759186        7.09493817987836        3.84882480605051
C           13.57474591783591        7.84258852330041        3.72783275359334
C           14.64841601149818        7.46470937135783        2.77731027409096
C           14.46437508624792        7.63335916340412        1.39018480176733
C           13.19372805656506        8.18972744038305        0.84638078998484
C           15.47533053387804        7.26583680954725        0.52278009773920
C           16.67668116200915        6.74843426569280        0.98042697012011
C           17.76425717192490        6.39390380434356        0.02711043349862
C           16.85888147675715        6.60704538499812        2.34691836304383
C           15.86805971373607        6.94093137556016        3.25067472354118
C           16.10894197414398        6.76332645813733        4.71004478364860
C           13.66514920708992        8.99398171954533        4.53084635739888
C           14.66908213829417        9.96718081473174        4.60042711699938
C           14.26701391627921       10.93670186104813        5.53136220089280
C           14.97343484068408       12.13326153038889        5.89016777667523
C           16.13801238962829       12.51297793105792        5.34644927373431
C           16.80680834501897       13.75697801916048        5.71468060637312
O           16.33673865872527       14.48233660626436        6.57734171536251
O           17.95867607397768       14.02949477612670        5.02433227474613
C           18.50789634636786       15.26143638868488        5.43969488167799
C           19.71941256844254       15.66609280043305        4.60912292786213
C           20.31176518225936       17.01005574460569        5.02895855019350
C           21.50833130630243       17.42997567557935        4.17515218080331
C           22.09197987433791       18.78315283331229        4.58487818375369
C           23.27105343043672       19.20350981791821        3.72112023404268
C           12.99579874150199       10.54435250507489        6.03984134202756
N           12.67096761297443        9.41106140295669        5.43207845989567
B           11.36086975246044        8.63792575110347        5.65628595001235
F           10.28829126150421        9.47245840343787        5.37405945347073
F           11.32372947222474        8.17906343346167        6.96555384178105
N           11.32414748959185        7.43373096344768        4.70081464480136
C           10.30526133666119        6.59265286867873        4.58202225261847
H           -0.43640778367775       -1.35645367629402        1.63861140993164
H           -0.43765822632727        0.39889757366354        1.77346677763618
H           -0.16679985804389       -0.58957293017133        3.20014976524087
H            1.73775970700349       -0.43678752881349        0.79247390271817
H            2.00714041846286       -1.41160533528274        2.21074350299375
H            2.05130743338637        0.66880258737924        3.63211861228649
H            1.78062207256786        1.64346114626095        2.21535432887875
H            3.92856120862788        0.79206991429707        1.21319891945049
H            4.19986463604659       -0.19382744179093        2.62219594701217
H            4.27148141584702        1.87580144363215        4.06241848426121
H            3.98288988617678        2.86470197080168        2.65974348188055
H            6.12934185765744        2.03625372153731        1.62635920418730
H            6.43372290180192        1.06274935716661        3.06404796386202
H            8.12390458819909        4.92588308498862        4.17625962980027
H           10.35416223459840        3.86235021872492        2.41339970802060
H           12.54471225055486        5.40742166884824        2.43103061742724
H           12.69889270614149        8.83190340391603        1.57529806042879
H           12.50330358505136        7.38965144565689        0.57854880296600
H           13.37792528919850        8.78823501815743       -0.04621694191928
H           15.32879474280246        7.39088018466841       -0.53528166383818
H           17.35698165063951        6.07379592890669       -0.93238729152037
H           18.37646277207033        5.57901225015169        0.41452642953795
H           18.41546512538645        7.24997052989496       -0.15162458668080
H           17.79466624124408        6.22359765990429        2.71278952721939
H           16.77812931527264        5.92341263478471        4.89873891089847
H           15.17789207731335        6.56740840809965        5.24245877595843
H           16.56145682640578        7.65724964914868        5.13982668721737
H           15.57577769539154        9.96952176929469        4.02281997568672
H           14.52683406288793       12.77284012329036        6.63047514073959
H           16.60683708513453       11.90648916869359        4.59561993670356
H           18.76957867767241       15.16945266371526        6.50107877332685
H           17.71718656416458       16.01899307338335        5.37000316852611
H           19.43354626238147       15.69764746158467        3.55199853167219
H           20.48126993145226       14.88176447326857        4.67613243714734
H           20.60748673837097       16.96897863983671        6.08379930391845
H           19.53662259237318       17.78373807406338        4.97912830277247
H           21.21270808957168       17.46271654043932        3.11993718141524
H           22.28779160661048       16.66097452940640        4.22956545697965
H           22.39207666261336       18.74363103777987        5.63995446090698
H           21.30321553413092       19.54528193778531        4.54173984637963
H           24.08052642124821       18.47411974052725        3.77722262036873
H           23.67749984723055       20.17017198943545        4.02534461457470
H           22.98206758514791       19.28434937527769        2.67208192836347
H           12.38807304171345       11.05917526324526        6.76381950486148
H            9.38069072114403        6.65952372408359        5.12837038326368
