98
 energy: -20.794050189615 gnorm: 0.000772379960 xtb: 6.5.0 (97a52f5)
C            1.18669582433590        1.90792376783863       -2.77941488858329
C            2.69833533461298        1.73063623123362       -2.77193701545084
C            3.12449595937706        0.27048560449083       -2.60255935797592
C            4.64249295233889        0.08318482151577       -2.60114557031122
C            5.06041310633175       -1.37494152088136       -2.41697479487109
C            6.56903063182124       -1.56596919592728       -2.36822229463930
O            6.92159275765798       -2.91432735902969       -2.04239850988410
C            8.31081161265828       -3.13892207654769       -1.93375257791495
C            8.94401311620471       -3.83674826442110       -2.95027491883567
C           10.32745922922627       -4.02586038118093       -2.99725178646880
C           10.90783712097647       -4.61294555912635       -4.17101769659601
C           12.12218315315259       -5.28332571626991       -4.28823731277806
C           12.98043676971943       -5.26408317863197       -5.46815124376721
C           12.66779401263376       -4.79077348387489       -6.72672353462036
C           13.59814891310288       -4.78865811481903       -7.75130898861515
N           14.39962972507357       -4.79181558587537       -8.59732219120685
C           11.40598082864017       -4.32634403548384       -7.05226779704693
N           10.33264086741628       -3.94932068567101       -7.30502582435171
C           14.26268922378169       -5.82682254055713       -5.06395533853810
C           15.45229892286892       -5.98413087077927       -5.76885979939507
C           16.52135594799496       -6.60040368305275       -5.16280347012455
C           16.41816623272455       -7.07808093436573       -3.86274488590578
C           15.24979142937394       -6.92991965930901       -3.15324545408089
C           14.16789346000308       -6.28427018066272       -3.74405956404940
C           12.81439145293293       -6.04596885668553       -3.25485465556820
C           12.25706918509271       -6.61902100402245       -2.12340327598620
C           10.88620211849486       -6.72363364337615       -1.94857187664855
N            9.73543097344407       -6.87333172873083       -1.84225465967295
C           13.03903341232633       -7.28463784285120       -1.19540643534039
N           13.72143277473399       -7.84060000086537       -0.43168936449854
C           11.13021124482005       -3.43526435551470       -1.96006628996197
O           12.51640505602407       -3.51136861168760       -2.06852804720967
C           13.23396636676881       -2.54065998204233       -1.31391834559713
C           14.71389826290398       -2.53549523032124       -1.66877303669790
C           15.41618908492647       -3.80823741300286       -1.20708237718674
C           16.89311681755837       -3.85555037384000       -1.60579246720673
C           17.63980923980537       -5.05598638767577       -1.01973057826339
C           19.10212510527210       -5.10485596293851       -1.43844671600490
C           10.49144746163808       -2.75338795611066       -0.93337024582498
C            9.10341487942407       -2.60617265688471       -0.86059487926162
C            8.53506345479592       -1.82572929630699        0.19986949988958
C            7.24304882187691       -1.91434442728939        0.71526113421027
C            6.43685069657892       -0.78611501309269        1.17282293378737
C            6.87298315377471        0.49143411344604        1.45773299066637
C            5.98733450142263        1.49548336868441        1.80824217696964
N            5.21955083018387        2.32587519426953        2.08939610674889
C            8.21366247557128        0.83165258197540        1.42845551864278
N            9.34996867285572        1.08812677301356        1.40149174182020
C            5.05426845765194       -1.24805192298644        1.21011415035631
C            3.86938664445653       -0.56319326453832        1.46126359935167
C            2.67456101095937       -1.24220947134503        1.41880544304618
C            2.64240928037106       -2.60245379382040        1.13749878812376
C            3.80496628400934       -3.29509409412995        0.89426410724100
C            5.01966852672307       -2.61756462503711        0.91803777483840
C            6.38371248235343       -3.09305984239885        0.71864404467242
C            6.79037415427996       -4.41607707595667        0.72112985965388
C            5.87108150896707       -5.45034232181869        0.69051124844134
N            5.07540284124647       -6.30125734880367        0.67012391398413
C            8.11331676220446       -4.77160250655470        0.93331057480087
N            9.21508561954717       -5.05931962227625        1.18112102624331
H            0.89892257089142        2.95414830143198       -2.90061374932562
H            0.74368597148591        1.55038355311191       -1.84869244677236
H            0.72814351474017        1.34441513556612       -3.59346144955404
H            3.14391497386136        2.33342663804698       -1.97013759103152
H            3.12776632876475        2.12750889663480       -3.70085259437113
H            2.68058988220336       -0.33671881652092       -3.40008289777199
H            2.70530438720054       -0.12830590593335       -1.67142592390766
H            5.08582265469859        0.69432716158929       -1.80606414684626
H            5.06522926659638        0.47320621661665       -3.53436365007201
H            4.64204689519013       -1.99640588815553       -3.21663134728200
H            4.62314372280705       -1.76975452658662       -1.49426758544942
H            7.02077369584799       -0.90436173456353       -1.62221564350919
H            7.03049232368943       -1.32400299523813       -3.33254573456580
H            8.33464364980478       -4.22017117781944       -3.74787217957818
H           10.38383151537389       -4.39300643500627       -5.08765144650325
H           15.52455862108930       -5.63752351533563       -6.78307280628197
H           17.44310399989969       -6.72842860842447       -5.70655120864135
H           17.25630568624695       -7.58485694650208       -3.41316693556657
H           15.15734678537769       -7.33002358077318       -2.16052650570628
H           13.10136610507618       -2.77233663360305       -0.25126039380858
H           12.77705001529293       -1.56359105960379       -1.51574271173792
H           15.21156428440837       -1.66105496266336       -1.23172418983534
H           14.81767383594302       -2.43077050126102       -2.75460655518720
H           14.88894437083717       -4.68033645935469       -1.60977315690936
H           15.32681412268654       -3.89893359990900       -0.11805997560731
H           17.38731605989904       -2.93087451740609       -1.28552004454567
H           16.97904876087879       -3.86304314392558       -2.69866451410496
H           17.13208874773937       -5.98076530272831       -1.31827500008850
H           17.56263348152746       -5.03169174317985        0.07496668700578
H           19.19971352398153       -5.16028742607011       -2.52368178790740
H           19.61901711428429       -5.96917875006018       -1.01664476749378
H           19.63551040244414       -4.21090361769903       -1.11158850561683
H           11.07605699792297       -2.32334190010014       -0.14302905577286
H            9.14615436356931       -1.00518785070478        0.54051585983261
H            3.89432824513033        0.48585011761856        1.69079141994972
H            1.75434889724296       -0.71603842083268        1.61350530146051
H            1.69768462930720       -3.12085614040854        1.11927321742135
H            3.78483284800405       -4.35133665723402        0.69791544937662
