108
 energy: -21.002909924221 gnorm: 0.000739844302 xtb: 6.5.0 (97a52f5)
C            0.58833416502612        1.83848200593664       -1.67102412881078
C            2.09029749956307        1.62307034716045       -1.77419708417807
C            2.89245336117237        2.63702065509981       -0.95673325498127
C            4.40334352784371        2.42465506695246       -1.05323832958864
C            5.20120628387333        3.43524050236860       -0.23100237007937
C            6.70522619400304        3.21643954437572       -0.31269983227457
O            7.42044543450590        4.15184682967121        0.48994970135849
C            8.81584536799475        4.03026660851459        0.44648573664230
C            9.49027293063446        3.05455735624650       -0.27339846760256
C           10.88046573465024        2.96428610424166       -0.30812069828785
C           11.55253891539443        1.85691288757489       -0.94807159063966
C           11.18026117051417        1.09256132413285       -2.00973130684556
C           10.05546218987262        1.38285316712602       -2.91321864082641
O            9.45062035652084        2.44069900692627       -2.89241142698459
N            9.70590362455406        0.39854399123929       -3.82968542967275
C           10.41381443034796       -0.77402846201937       -4.04314391008774
O           10.05713315961616       -1.59131758557909       -4.87285620435778
N           11.55694465271037       -0.96331183486746       -3.28324839619707
C           11.99987803289129       -0.09184946859610       -2.29928873988122
O           13.02718910678740       -0.30633920539381       -1.67687898521816
C           11.63757540509497        3.91189774883641        0.43551739990605
O           13.04618702411255        3.92867783899599        0.45786854191642
C           13.67544254605765        3.87563645255655       -0.83096095818270
C           14.78403875409690        4.90831931449198       -0.96835795476888
C           15.48585085436855        4.85193192202384       -2.32415158165408
C           16.61938742843391        5.86984828114326       -2.45373694698907
C           17.32887594732421        5.80892015937003       -3.80726476199532
C           18.46350208923367        6.81531810235089       -3.92450462849494
C           10.95679962540771        4.87494063405669        1.18288410973490
C            9.57949431153190        4.95822198939555        1.19853522216773
C            8.91676986228502        5.94151760778671        1.94240651120993
C            8.24081783565840        6.75375648150993        2.55789904133634
C            7.38358328106894        7.64196989138907        3.22998398685671
C            6.22526482453712        8.10076916726886        2.60860421652360
C            5.35821179747524        8.93918309762613        3.26579408205204
C            5.60865545541707        9.34615185661140        4.57863479063452
C            4.66856293443645       10.22623005533566        5.30321889043248
C            3.29411100477377       10.03315681361798        5.22236003710238
C            2.34188015502990       11.05938477577204        5.69862415210180
C            1.19867773094464       10.68938184516445        6.40977441827197
C            0.30128948506119       11.63720813902440        6.84665572115971
C            0.51936492486561       12.97388326807043        6.57888309078701
C            1.63729048857584       13.36038937011867        5.86700087003692
C            2.53679093556778       12.41565761333557        5.42805733747699
C            2.72676087673924        8.78676837338888        4.66132203820367
C            1.64142761364403        8.83205200895574        3.78408893955317
C            1.10884586420240        7.67601542010859        3.26008560157343
C            1.64059832633161        6.44910484542797        3.60393997217756
C            2.70566833571482        6.38134264869842        4.47965173175148
C            3.24088603456250        7.53462879432553        5.00632915520562
C            5.24661258416836       11.31067334920257        6.12738846863171
C            4.77441568117203       11.57582373129648        7.41445400192691
C            5.32853953424176       12.57867023245931        8.17708685970081
C            6.36975303939854       13.33479659166500        7.67702826605700
C            6.85859817196063       13.08168944969142        6.41092921784351
C            6.30720930544383       12.07961912704106        5.64498538936273
C            6.78453550178746        8.90300769811236        5.18910273191372
C            7.65110607545328        8.06447358264096        4.52939838613935
H            0.02832879747637        1.10915394003028       -2.25988438074806
H            0.30747170305707        2.83184167418197       -2.02455801025504
H            0.24848827928185        1.75639273518216       -0.63738140616651
H            2.40727112093607        1.67234207545599       -2.82401712915882
H            2.34908546529880        0.60784939065956       -1.44637157830087
H            2.58127121443286        2.59048888373986        0.09361583219367
H            2.64230071434680        3.65326977309358       -1.28355145520594
H            4.71685901115596        2.47439477996565       -2.10277092576217
H            4.65310710754872        1.40768031070635       -0.72815965225089
H            4.88981379561490        3.39285921347806        0.81868909269259
H            4.96658682984639        4.45442562442734       -0.55737064696282
H            7.05267042409819        3.31764259021632       -1.34749025759503
H            6.96021537406803        2.20724179058291        0.02968868336522
H            8.92932395553619        2.32263234395230       -0.82011404533252
H           12.47351902602895        1.55619003317002       -0.47452440340918
H            8.91969384399743        0.58293779808129       -4.42458720121180
H           12.10231480974844       -1.78783977010212       -3.45206263328349
H           12.91204473757538        4.02823259719921       -1.60246753524537
H           14.07838973264230        2.86657561034343       -0.96973208386485
H           15.51267771218063        4.76154507820219       -0.16303086027596
H           14.36974055140714        5.90885734381979       -0.80060988845195
H           14.75357835768945        5.01067886142971       -3.12458661216943
H           15.87828247635427        3.84199692902918       -2.49211596910283
H           17.34835618625203        5.71189003754416       -1.65012263958065
H           16.22741848774718        6.88040484008978       -2.28879308138099
H           16.59587824457713        5.97134599252236       -4.60813042979681
H           17.70857709006855        4.79206174335309       -3.97134401980947
H           18.10036016583381        7.83611124830482       -3.79479028297570
H           18.95796441688177        6.76351180655608       -4.89662312529536
H           19.22307173187103        6.64388922497690       -3.16001916545546
H           11.53403821249576        5.58084637927438        1.75085955448456
H            6.01271747587081        7.77913784850399        1.60341601940779
H            4.46670616864615        9.28692105887149        2.77369076093311
H            1.03093454612553        9.64706338513637        6.61884717590423
H           -0.57331202397530       11.33496795053147        7.39892922749417
H           -0.18310260797165       13.71510741664792        6.92313411262740
H            1.80570515746684       14.40333583533145        5.65453865807054
H            3.40424501464745       12.71574239344290        4.86652724997896
H            1.23057756545577        9.78950363812615        3.51447931989240
H            0.27534331845870        7.72855849836238        2.57908828350244
H            1.22360509355315        5.54516112847175        3.19122617858790
H            3.11928239507816        5.42378546212678        4.75029854427752
H            4.06774200917803        7.48246550913975        5.69302896334433
H            3.96717213362012       10.98155479863715        7.80579123895257
H            4.94896742069977       12.77374233237933        9.16658807507549
H            6.80199013214871       14.12026799623418        8.27499364955761
H            7.67324289114045       13.67007901260311        6.02175022063593
H            6.68632357371834       11.88131426062660        4.65745789330624
H            6.99569808349855        9.21492630368078        6.19720758835427
H            8.54562429177274        7.71582717162054        5.01641010735117
