54
 energy: -8.937128511986 gnorm: 0.000779697083 xtb: 6.5.0 (97a52f5)
C            0.96916179879788       -0.37091350832000        0.07149400863730
C            2.46892694395309       -0.37945415650753        0.32358012017505
C            2.94239161717746        0.83451655064866        1.12474017802153
C            4.45075233233026        0.83855238833388        1.37343917115353
C            4.92007582934964        2.05241865640450        2.17296013962268
C            6.42056542249228        2.06027458639881        2.41841319906562
O            6.83993511261514        3.21193180671581        3.15325540722041
C            8.24321033701985        3.29727512907840        3.31972714414480
C            8.76139347036180        3.11450757955534        4.59822515940724
C           10.12074405959706        3.14780040629152        4.86465152464699
C           10.57454880042662        2.93216942097379        6.23074258087797
O           11.69872204948343        2.90423144380452        6.65440124552657
C           11.02792688670328        3.38533802674065        3.80514273339189
O           12.39737135371849        3.41361682281208        4.08430217376635
C           13.25097356349300        3.69384924973884        2.97781744201178
C           14.71701391817319        3.71364618621391        3.38723041033772
C           15.66162119033660        4.00130213937435        2.22171931680927
C           17.13294003431682        4.02252273479923        2.63648513104639
C           18.08260021695469        4.29302876960810        1.46811296118508
C           19.54385126233225        4.31483565998737        1.88895230297522
C           10.50622402822076        3.58513698970737        2.52895459126370
C            9.14531240482474        3.55532682674898        2.26148000845391
C            8.69238020288694        3.82337881739522        0.90434869552859
O            7.56480519900702        3.92499029825351        0.49969434613400
H            0.64439446248382       -1.24329252276667       -0.49884742510773
H            0.66874331690159        0.51683041683239       -0.48686530555430
H            0.41208009293266       -0.36548894305725        1.00936283081283
H            3.01104748741096       -0.41790599947715       -0.62989278457135
H            2.75737146076638       -1.29709467945762        0.85211001796418
H            2.41164619461081        0.87179951545711        2.08332024103512
H            2.65383696010186        1.75441767315357        0.60270110430796
H            4.98189436971874        0.80274304026063        0.41480112917243
H            4.74079137164382       -0.08091237363095        1.89575853952522
H            4.39660054465232        2.09508029709764        3.13453537849618
H            4.64019966428859        2.97510316766826        1.65234313198446
H            6.96607928999898        2.04894926280874        1.46880742001763
H            6.73255499709704        1.17195092592548        2.97929792642493
H            8.06947669689939        2.92778381138961        5.39890517729147
H            9.80262733844608        2.77013576279242        6.97217235042205
H           12.96029581497633        4.66333327099017        2.55783810873771
H           13.08142851330667        2.92886112096447        2.21188030020467
H           14.97297350070231        2.75374740285257        3.84927286602706
H           14.85904675666928        4.45770275028775        4.17877806039767
H           15.39538861632707        4.95941381220684        1.75995648187243
H           15.51209882849632        3.25320256516632        1.43427674042437
H           17.39510270338767        3.06878561896689        3.10937785015730
H           17.28419998212318        4.77855312255335        3.41594268439494
H           17.81233777000677        5.24555827727862        0.99435533852143
H           17.92558868065185        3.53414221727164        0.69075034199465
H           19.72752300357268        5.08945395410127        2.63504643072937
H           20.21017713856508        4.50626753665108        1.04547895481706
H           19.84029752540050        3.36325256540373        2.33281659218553
H           11.17323260422581        3.77914236377462        1.71058972090313
H            9.46167627906982        3.96019124177033        0.15544980501151
