99
 energy: -19.663557711231 gnorm: 0.000471213592 xtb: 6.5.0 (97a52f5)
C            1.92502602099052       -0.09492077835485       -2.40593816625077
C            2.96320429299091        0.15968024274321       -1.32460612495830
C            3.90861344011640        1.31229957718353       -1.66838496567250
C            5.00118783048172        1.51503250721471       -0.61982238722234
C            6.03085870002063        2.57758881182197       -1.01224759123969
C            7.26845222674837        2.53511557235237       -0.11996966927691
O            8.38896970182877        3.30325853123302       -0.57779334584588
C            8.77422021125384        3.21121210774226       -1.92938803189515
C            9.33848855452703        4.37312241506561       -2.45105753511562
C            9.71836752815866        4.50690443064623       -3.78296005023230
N           10.27490654209048        5.70191263559159       -4.26449442323259
C           10.53290332317518        6.86361841988454       -3.39248417840480
C            9.29633688277845        7.71468332714260       -3.19300573769504
C           10.65971878321379        5.88342724852571       -5.67668672667173
C           12.01962441647872        5.28980800024612       -5.97934578288201
C            9.51479530026629        3.40463438155613       -4.62537101460653
C            8.99009622352222        2.23917622307261       -4.14170221911562
C            8.63086714498933        2.08320542982238       -2.79497109929669
C            8.15209451851178        0.80424156609602       -2.31494067701157
C            7.31635986193047       -0.04747971568670       -2.98526604518942
C            6.82751416670714        0.24136128436328       -4.26535870960150
N            6.39829313555734        0.44733597983858       -5.32545434859630
C            6.77199752726946       -1.22143518505036       -2.34859233016458
C            7.08783051711185       -1.75436244988536       -1.11993245013613
C            6.31418566389770       -2.87625519264149       -0.76521930348627
C            5.38528049382055       -3.23848361537973       -1.71374342086108
C            4.43038781483575       -4.28873519352553       -1.65611119539501
C            4.26059093996420       -5.11786285356183       -0.60176064893109
C            3.29268858131982       -6.17668476389472       -0.45993530149654
C            2.38253545205487       -6.52461824664369       -1.44767229012496
C            2.31540291171968       -5.91941106085549       -2.69147219354318
N            2.25879212420536       -5.40180522311205       -3.73449473159791
C            1.41476696929205       -7.49680289689738       -1.24372180171140
N            0.59160570973321       -8.30704884409809       -1.08545881451126
C            3.29346252139446       -6.89011911389372        0.83883443928809
C            3.35930567157514       -6.17918836970421        2.04120561328301
C            3.37375847184459       -6.83028443027195        3.24844515521490
C            3.32652986726856       -8.22245219824933        3.31270133537279
N            3.32673883248734       -8.89821951065369        4.57256834126282
C            2.73201782249834       -8.28091777054186        5.72516166378216
C            3.32190779763505       -8.40543497553224        6.98055690305073
C            2.75044886051715       -7.81784660208014        8.08643377719570
C            1.57931439612245       -7.09675363339427        7.96023284752987
C            0.97999533943734       -6.96691317567727        6.72275387987459
C            1.54925340430623       -7.55365586174067        5.61533939881319
C            3.90872371239339      -10.20529253482764        4.69731825105208
C            3.30782614500664      -11.17556491705017        5.49543023077032
C            3.86640474951652      -12.42731701345978        5.62039068018751
C            5.03567966039793      -12.73353848977215        4.95231427134541
C            5.64556790805685      -11.78145091701103        4.15919283692768
C            5.08911004804061      -10.52878340525763        4.03266961512941
C            3.27202157913587       -8.93587555416965        2.11579333447664
C            3.25879182472660       -8.28576189659788        0.90791060373968
S            5.51565296707483       -2.17499037367174       -3.08464789716509
H            1.26067333895484       -0.92263567781976       -2.14911446247350
H            2.40022627050935       -0.33929401108271       -3.35748147817021
H            1.30455450498612        0.78701793620709       -2.57237252092358
H            3.55300855654085       -0.75005471316915       -1.15121130267980
H            2.47123204423874        0.36641229574291       -0.36544515541616
H            3.33938543792045        2.23987654987247       -1.79995551353531
H            4.37243415899967        1.11925460414357       -2.64284762777638
H            5.51509279725140        0.55985416819305       -0.45881745604970
H            4.55494122965745        1.76284863428466        0.35034967946892
H            5.58424726134415        3.57799501231535       -0.99525232425304
H            6.32528333730004        2.42326354191955       -2.05445240917499
H            7.60598462433703        1.51020327567603        0.05082221896142
H            7.02011636272913        2.91780342927162        0.87717997951097
H            9.44722636357496        5.20224422072225       -1.77985585461157
H           11.34185924623193        7.45469367097089       -3.83480374786690
H           10.93285010192128        6.50378699116030       -2.43939037621966
H            8.93209316736384        8.10091383770782       -4.14593817050917
H            9.48531868873038        8.56799101947780       -2.53853113399957
H            8.48437878256545        7.13335753392528       -2.75506869113141
H           10.64623659409427        6.95494183764309       -5.90321810251381
H            9.88012225918193        5.44929063208835       -6.31037466054933
H           12.79235444543396        5.75575242961128       -5.36631420079469
H           12.30139914940680        5.41976107433089       -7.02609317163425
H           12.04180103701057        4.22198160838486       -5.75910094527418
H            9.78696445699076        3.47000750601482       -5.66301635759645
H            8.86986851672066        1.40045269967015       -4.80436575999755
H            8.45172373418812        0.51801923288359       -1.32394240891695
H            7.84831270326360       -1.34460104388813       -0.47446121805044
H            6.43161356699942       -3.39374238847102        0.17367815085265
H            3.80487285943070       -4.39079237181481       -2.52141675362820
H            4.91698640632612       -4.97768248685535        0.23829997171115
H            3.38164985810437       -5.10358235693575        2.01073455146460
H            3.43143299369688       -6.27026031187695        4.16517157486137
H            4.23776667223560       -8.96275407310535        7.07092710143973
H            3.21816184329757       -7.91990402614800        9.05191451535311
H            1.13311199857523       -6.63667091968600        8.82657250949281
H            0.06458334503378       -6.40686255034992        6.62415503852931
H            1.08032608482218       -7.46655831916417        4.65091229385442
H            2.39308866350233      -10.93311003058655        6.00729581175854
H            3.39018745674529      -13.16950643179849        6.23982756560989
H            5.47198172121841      -13.71399904754020        5.05042822709366
H            6.55947490924164      -12.01903737281656        3.63988294889384
H            5.56678861771010       -9.77916645385496        3.42647942765464
H            3.22426341281937      -10.00991859981253        2.15306824287545
H            3.22464532750047       -8.85035248468883       -0.00742997453690
