48
 energy: -10.097246981170 gnorm: 0.000619725932 xtb: 6.5.0 (97a52f5)
C            1.02208711957693        0.08859878224827        0.11515777935728
C            0.24184913913201        1.16550171586316       -0.08117613883453
C           -1.20893418152505        1.17825019539151       -0.02315952102371
C           -1.89917923368553        2.36192302810845       -0.30645989510389
C           -3.27016732310919        2.41234469857733       -0.26136687578104
C           -4.01838163533737        1.28337709506658        0.07225801767231
N           -5.44655481074847        1.33798103612187        0.13087764086782
C           -6.17653102963348        2.23439090148995       -0.72325185350528
C           -7.29459161971116        2.91553112689895       -0.24718898389418
C           -8.00191949230980        3.76624730768314       -1.06681309655498
C           -7.60721591742334        3.95251548120487       -2.37758889116786
C           -6.50177966958568        3.28277529316713       -2.86585292347602
C           -5.79313266088436        2.43121413696188       -2.04800950278874
C           -6.16814082782493        0.50730612182699        1.05561280841925
C           -7.37742192191830       -0.07904627666092        0.68893163805704
C           -8.07382809765013       -0.86824576416287        1.57667979816178
C           -7.57731876874680       -1.08636084084532        2.84732938082037
C           -6.38099154630682       -0.50929946304402        3.22762607258695
C           -5.68305698445428        0.28070338869054        2.34173614820144
C           -3.33421040386473        0.10109260600293        0.35568404685212
C           -1.96292104136935        0.04727321677015        0.30925733410199
C            2.47625724153858        0.07581320110277        0.06018272305675
C            3.15825724497273       -1.13359469877713        0.21900192246477
C            4.53426005993337       -1.18371702594148        0.17648783254632
C            5.26355902658296       -0.02866458533173       -0.02446942222107
C            4.61049897454280        1.17765218901175       -0.18331008936839
C            3.23408291791392        1.23250384781191       -0.14243308915264
H            0.55187623982024       -0.85452945469938        0.32510481587858
H            0.71147182738314        2.10502951665430       -0.30798000575139
H           -1.33815327691367        3.24427232593936       -0.56341626138448
H           -3.78592943455849        3.33311213533397       -0.47076483204071
H           -7.59433336553713        2.77032795274397        0.77599621974062
H           -8.86465753756680        4.28765588154186       -0.68509907477894
H           -8.16169509888415        4.61839437216992       -3.01862461630402
H           -6.19505058137556        3.42548853993186       -3.88926581098390
H           -4.93976568804409        1.89659950135747       -2.42726072381229
H           -7.75665058907861        0.09036193779895       -0.30372273265317
H           -9.00781401128152       -1.31689994871525        1.27963343995672
H           -8.12327720386670       -1.70403679221569        3.54168481414201
H           -5.99506968704490       -0.67582360108450        4.22020137668102
H           -4.75758218677765        0.74337394506585        2.63737308941642
H           -3.90244985309919       -0.77868143174672        0.60239105105318
H           -1.46504759987571       -0.87867587239257        0.53442847220934
H            2.59259096032916       -2.03634267437131        0.37555796044289
H            5.04281143037920       -2.12603157452084        0.30059134026430
H            6.34025912182879       -0.06860274598418       -0.05697033411282
H            5.18011619676524        2.07928979187862       -0.34037763902742
H            2.74095577929349        2.17998148007817       -0.26581340922874
