97
 energy: -17.250126642318 gnorm: 0.000759584697 xtb: 6.5.0 (97a52f5)
C            8.66737257719928        2.57404658966470       -0.16237297551417
C            9.60795763903564        3.71173784242246       -0.52416491939956
C            9.33810660004743        4.29101444040711       -1.91381713234704
C           10.29563277013306        5.42562467781825       -2.27225882803229
C           10.04303273654555        6.03382053260466       -3.64676641880870
C           11.07195220992758        7.10792478037187       -3.97428068538013
O           12.41085544841335        6.62079916593988       -3.89353873982304
C           12.77701168807775        5.75910757461729       -4.88561065785235
C           12.03506122718291        5.57427300172186       -6.09934273687809
C           12.09023948116726        4.39787703052982       -6.87034001501792
N           12.45647705803595        4.34646354836475       -8.22399633137355
C           12.94071434906740        3.09244824672662       -8.49517987807860
C           12.71203528528521        2.27517810304982       -7.35099273906122
C           12.19926949554084        3.05091954293390       -6.35722939348563
C           11.76888673750481        2.57273593976833       -5.00932487934466
C           10.36544522782063        1.98349031548186       -5.03549984697215
O            9.93677456248573        1.50965568353008       -3.76089271590617
C            8.67683469614868        0.87704934153111       -3.82721867031136
C           13.92022315463631        2.78491001764939       -9.50616933640404
N           14.93681074895685        1.93897358275979       -9.25146872171568
C           15.87181068768429        2.15389580638655      -10.18718964408708
C           17.20801157454234        1.61465356488535      -10.12161570389656
C           17.95387495427238        1.47452502521080       -8.98854644622966
C           17.67821450172506        1.99999578480347       -7.68526011284466
N           16.58583538470761        2.73485682953270       -7.26254722989662
C           16.74579696105155        3.11106690199481       -5.95687727369185
C           17.97804129175174        2.60638988474031       -5.52503734459497
C           18.56363616682695        1.93220531891469       -6.58099016397798
C           19.85875060698718        1.19250055905234       -6.51248285264505
C           19.65363363613560       -0.27970280053847       -6.17461408530461
O           19.05874713491049       -0.45370565133861       -4.89163485759277
C           18.76930251819849       -1.80520006049178       -4.60831268321386
C           15.79384867697000        3.88820654964737       -5.19486103908649
N           14.65034163332527        4.36281420675719       -5.70064811360725
C           14.03062593918023        5.04548036483818       -4.71563518342742
C           14.82677475902427        5.01797647237369       -3.53076054066101
C           14.56980495474483        5.72786234658818       -2.24629741517156
C           15.06745210328599        7.16706403466526       -2.28732219618646
O           16.47963333892327        7.24110130213506       -2.45723931419998
C           16.92999303516525        8.56354485236581       -2.65402175873948
C           15.93872952770631        4.29196148093333       -3.84501102959549
C           15.39113594461911        3.10248674604721      -11.15506085956179
C           16.15125564395776        3.65921048458422      -12.31273638547514
C           17.12393242849088        4.75641402486890      -11.90257727970663
O           17.85152980295564        5.27887863497778      -13.01225623710912
C           18.74880745092345        6.29977982535460      -12.63519934236311
C           14.17933224965106        3.52390824890806      -10.69405160053869
H            8.85948704154867        2.18626829577152        0.84026332779468
H            8.77171473032741        1.74250029008989       -0.86011954042093
H            7.62552140798313        2.89667676463482       -0.19690361394365
H           10.64993215220128        3.36959874743448       -0.47170830389930
H            9.53443063290690        4.51381185117639        0.22191444322310
H            8.30280003751701        4.64697837746730       -1.97281111347505
H            9.41210628761694        3.49555945124839       -2.66417697791783
H           11.32625818611009        5.05638748513554       -2.22688878487008
H           10.24130017065934        6.21036923937174       -1.50838529016102
H            9.02658629667480        6.44275162413223       -3.69640534100721
H           10.07994376421698        5.24489927318857       -4.40540957434421
H           10.91012538114530        7.56077662547751       -4.95825944919931
H           11.00173186635737        7.92670777362146       -3.24831295034440
H           11.58995532240798        6.44485738487611       -6.55404689352735
H           12.71107159082096        5.18048690055462       -8.74937908980320
H           12.97611177461438        1.23560006127883       -7.26088015493438
H           11.81023718299562        3.39546639657817       -4.28959840484348
H           12.47706249935974        1.82418215059677       -4.63990815103478
H           10.32106746663950        1.14765261512787       -5.74310431686729
H            9.64271076423046        2.73082940189368       -5.38257406012808
H            8.41633520185041        0.49340410154110       -2.84059595603851
H            8.71413752669266        0.04408536064161       -4.53052499007901
H            7.91768535785930        1.59292909950935       -4.14550147356547
H           17.66233889391183        1.34343991839509      -11.06209813818135
H           18.91463266295256        0.99986500531139       -9.09566491648713
H           15.71049482422721        2.86657692742442       -7.76951149936962
H           18.39350508804602        2.70989202134716       -4.53768215625054
H           20.49057252768213        1.65266865385376       -5.74554393463445
H           20.40206303930063        1.30714667288164       -7.45685281318139
H           20.60355851538143       -0.82778827471336       -6.18287108099918
H           18.99854750435830       -0.75019745924085       -6.91660797086767
H           18.32215500733066       -1.86930773015774       -3.61552535022402
H           19.68726071694011       -2.39424187383837       -4.62583466607415
H           18.06482211361300       -2.19759410395788       -5.34299122327331
H           15.06686447569775        5.19154890376532       -1.43152219384831
H           13.49789650367903        5.69849095214409       -2.02576824111980
H           14.80908424717629        7.70660243663491       -1.36804116074347
H           14.59752788705085        7.69995947466407       -3.12238365883075
H           18.01612901084430        8.55538230797296       -2.75363044923670
H           16.65342600140012        9.18276679805264       -1.79953715647754
H           16.49130482954191        8.97437657779847       -3.56447617477961
H           16.77891794600879        4.09722893476860       -3.20063117525917
H           15.45188558679853        4.05047969464634      -13.05867595584479
H           16.69729773632951        2.85537953184806      -12.81661074348447
H           17.84386691341468        4.37505725968798      -11.16939487434371
H           16.58780161104922        5.58307955280651      -11.42249336880156
H           19.27822503593557        6.65021770150895      -13.52212572955119
H           19.47272014079434        5.91343545128404      -11.91636983068552
H           18.20012998089997        7.13321954361436      -12.19433803558599
H           13.56449195566445        4.29975515409184      -11.11725852721050
