128
 energy: -23.781122931674 gnorm: 0.000966031838 xtb: 6.5.0 (97a52f5)
C            1.29228540604846       -0.12310854913339        0.29226042852874
C            2.79418292137524       -0.36175617629362        0.29638650323758
C            3.37233530901414       -0.52052186592833       -1.11040031788071
C            4.88205003346606       -0.75916655523775       -1.11501826541224
C            5.45765144734593       -0.89407220609191       -2.52295580080876
C            6.96415088964748       -1.11290347348208       -2.53549706625777
O            7.47418882086436       -1.19205176584144       -3.86639896322771
C            8.86561932734590       -1.10565939769663       -3.98738210361775
C            9.72878356756713       -1.30197390236637       -2.91338023746619
C           11.09625260866397       -1.22751494620404       -3.06381963604554
C           11.66002201936829       -0.95613377217270       -4.30236040372388
C           13.05225226046254       -0.86508427948535       -4.45953614096933
C           14.26492996766512       -0.76232034450732       -4.59184081566495
C           15.64682099412115       -0.62813827261592       -4.74232251313332
C           16.22708745601205        0.60207400909877       -4.95270514111502
C           17.61143869168391        0.76626052650317       -5.10165729339766
C           18.49070960376553       -0.29184573005547       -5.04757842894935
C           19.86374561306982       -0.10088289037568       -5.19146205605190
C           21.06845206214912        0.07918365515575       -5.30741483253013
C           22.38431685690167        0.29943238945712       -5.43561404637735
C           23.58272661792632        0.52078529705561       -5.54537542897174
C           24.94280007396344        0.79775823293201       -5.67153451173936
C           25.41064561229652        2.09262575127919       -5.68522087288729
C           26.77237115223512        2.39906024691667       -5.81717872031972
C           27.73929929937050        1.42764923806109       -5.94183179825401
C           29.08900087713814        1.75654827056910       -6.08336074342911
C           30.27145732990177        2.04217681296510       -6.22022220100862
C           31.62663374439176        2.36699986361754       -6.39033772833747
C           32.04291160184887        3.69054016563531       -6.42496976453302
C           33.37173461205051        4.00788859647488       -6.60030740141397
C           34.33632533346280        3.01726818416430       -6.75029187550995
O           35.69856118598184        3.26844838179878       -6.94118740283270
C           36.04474813632236        4.64424750995652       -7.09909163341836
C           37.52394573272214        4.82993607329736       -7.40634582100824
C           37.91558197083928        6.29555328635098       -7.58524246309535
C           39.39856569444752        6.48377541277759       -7.90336445828787
C           39.79187951777985        7.95109489527113       -8.08015835911896
C           41.26835175615452        8.13121296572554       -8.39692831361844
C           33.92616134388903        1.65323027894545       -6.71272286121007
O           34.92492215217815        0.68137149821776       -6.86653705482562
C           34.45816533250015       -0.66672429934728       -6.91242809913030
C           35.59135645436234       -1.65473492512347       -7.15084502377247
C           35.11638474123134       -3.10530125380942       -7.21166537125725
C           36.25283278818635       -4.09538421757418       -7.46556216385669
C           35.77988914995316       -5.54835129490867       -7.52960830371737
C           36.91577601305534       -6.52670222917410       -7.78567031569619
C           32.58204794411815        1.36460298766266       -6.53311591991475
C           27.31842802216357        0.05274716576295       -5.93092914202209
N           28.08121561297644       -1.01730142043089       -6.03797721510806
S           27.10476379991907       -2.33900833447527       -5.96930940978172
N           25.66395478911032       -1.56214368784738       -5.80026156838873
C           25.90356174211555       -0.26645366988468       -5.79409510171285
C           17.94813851360170       -1.60693859261681       -4.83163386015562
N           18.61353485390778       -2.74133240136248       -4.75012102723672
S           17.52256098013108       -3.94712690700787       -4.49961271307875
N           16.15517283435800       -3.03286858800324       -4.48954065575936
C           16.50927214857904       -1.77694940697328       -4.67824693534611
C           10.80858430683577       -0.76116740419495       -5.38542855501742
C            9.42833400057090       -0.81894805557226       -5.26573180259641
O            8.68654086408707       -0.57705228350141       -6.43698035068179
C            7.29303373712987       -0.37901301372092       -6.24719760720698
C            6.57954474990418        0.09085604669045       -7.50559465393873
C            5.08185369786782        0.29758933904041       -7.28507284175671
C            4.34651040442993        0.77690888357072       -8.53591934297932
C            2.84778347321274        0.97788071128069       -8.30470448755571
C            2.11594904824877        1.45472434874367       -9.54946770488633
H            0.89249969352216       -0.00850082550831        1.30196477069333
H            0.76258922681209       -0.95274923535530       -0.17885388805823
H            1.03811284868056        0.77942733353436       -0.26604469939678
H            3.03344438099188       -1.25423734646616        0.88931818569113
H            3.30626130412304        0.46432641597573        0.80707883645670
H            3.13967761072709        0.37068616670360       -1.70547166858477
H            2.86749591404147       -1.34656791249232       -1.62534136900349
H            5.11622942921086       -1.65826695357527       -0.53274478345355
H            5.38548790667875        0.06111543139828       -0.58961204586983
H            5.22102240128121        0.00104251933517       -3.10905734829322
H            4.96769771501118       -1.71906910211126       -3.05204087995936
H            7.22210727006512       -2.04084237232493       -2.01339088565450
H            7.47027062485773       -0.28768630591452       -2.02210520310494
H            9.32455911677917       -1.53139238027960       -1.94446497864157
H           11.74474378512794       -1.38044114034846       -2.21803780827998
H           15.58708719834262        1.46641071757241       -5.00169280836412
H           18.01023519479210        1.75317957449840       -5.26279360801737
H           24.69754596705864        2.89388338730240       -5.59351763638632
H           27.08115870197945        3.43038416012757       -5.82568601912102
H           31.30863565274383        4.47012850214147       -6.31380227741921
H           33.66181084265956        5.04235829720144       -6.61921771942732
H           35.77917819786034        5.17197615464895       -6.17622783609046
H           35.43504901267254        5.05971103160318       -7.90938982922587
H           37.77863728933973        4.26103714118199       -8.30758105658448
H           38.11871342844270        4.37706317449923       -6.60520761505832
H           37.65874896565329        6.85807180993020       -6.67970050124602
H           37.30889233962674        6.74367501640619       -8.38119126878341
H           39.65431778403872        5.92263539079460       -8.81007418704216
H           40.00524888669366        6.03344579793119       -7.10870174189079
H           39.52999693599914        8.50828899371197       -7.17110610768578
H           39.17828642119705        8.39761631329702       -8.87360254455148
H           41.89466717453480        7.72394361374823       -7.60153041437958
H           41.53601297402599        9.18267984866695       -8.52034966509238
H           41.54001297460746        7.61274047354571       -9.31792276450024
H           33.71344503899120       -0.74412237597187       -7.71260637036825
H           33.95468972789944       -0.88737568648078       -5.96449550535450
H           36.34327808956861       -1.53859838074640       -6.36229838354878
H           36.10900787899694       -1.39080583777661       -8.07986398212470
H           34.35531112904335       -3.21034447007125       -7.99403763356595
H           34.60342001764014       -3.36427499936208       -6.27777225662852
H           37.01386428401759       -3.99043352091427       -6.68312204377057
H           36.76576290514066       -3.83450394662877       -8.39898595876194
H           35.01436946992186       -5.64594860338169       -8.31052283230582
H           35.26541447695149       -5.80349460262950       -6.59387866764345
H           37.41715614761197       -6.31008059052020       -8.73042916300207
H           36.56509709927801       -7.55996070664828       -7.82903593278304
H           37.67074095042879       -6.46863076517058       -6.99986624402678
H           32.24960441751278        0.34460432099315       -6.50141729493617
H           11.22949322343612       -0.54408091427692       -6.34981600976450
H            7.16639045793064        0.34987164860492       -5.43843712698220
H            6.87153973342435       -1.32797547374563       -5.89637219691646
H            6.74563814094441       -0.63462283969061       -8.30965584502315
H            7.04007643476014        1.02069274089260       -7.85745687477202
H            4.92711341166341        1.01543955628384       -6.47069766260667
H            4.63137193403600       -0.63689213746531       -6.92982557135761
H            4.50068307474433        0.06025726978326       -9.35135786145723
H            4.79354659482401        1.71340670608150       -8.89011922355934
H            2.70087462413642        1.69204832740404       -7.48383541186843
H            2.40805548879375        0.03824691905320       -7.94531393725600
H            2.51583930747522        2.40704128641189       -9.90153642576204
H            1.04789880987187        1.59344932424817       -9.36888635041515
H            2.22038235654740        0.73911914853336      -10.36664114980356
