116
 energy: -21.393889345311 gnorm: 0.000765610909 xtb: 6.5.0 (97a52f5)
C            0.91117164147013       -1.64152691493785        0.36903215936380
C            2.43068711752663       -1.58625986620950        0.34060742872681
C            3.05430390817590       -2.78409829736468       -0.37750858990865
C            4.58198885072369       -2.73757802242745       -0.40513587045725
C            5.20346719214091       -3.92743094863514       -1.13457307398113
C            6.72484571620808       -3.87842702951845       -1.16435469650501
O            7.28266800862880       -4.98997020871434       -1.86090544092895
C            8.67466827576081       -4.96722507125416       -1.98788334664118
C            9.27234624829701       -5.98579449286080       -2.74016985431898
C           10.62861167075028       -6.03196882663366       -2.92542805468072
C           11.46853884094742       -5.05777956520136       -2.36838330861405
C           12.92409687815293       -5.09439322645461       -2.56833381764791
C           13.48763789956918       -5.54455726705325       -3.79249877491386
C           14.85929004440604       -6.08952102834385       -3.81741663199337
C           15.74035751538879       -5.78301045265328       -4.86164717678885
C           17.01924804514747       -6.28915312844578       -4.87895161718789
C           17.45319777769010       -7.11494947633135       -3.85957557341147
C           16.60065377861324       -7.43367767492953       -2.81999580907138
C           15.32110528130259       -6.92995012071842       -2.79695805828686
C           12.74274595473749       -5.48631108525985       -5.04831314955721
C           13.02022248993318       -6.38711134598702       -6.09207018914733
C           12.34298186906374       -6.33197657181952       -7.27785263346924
C           11.34056822131685       -5.36911317205957       -7.50101426716394
C           10.65627184545910       -5.34562574669805       -8.75166754874060
C            9.66765953888753       -4.46439492879279       -9.10551980971166
C            8.97851510193096       -4.45120760670358      -10.33068713398193
S            8.18922345314331       -2.99253285099108      -10.89508241410113
C            7.72534556962085       -3.73402306870108      -12.41477482135830
C            7.05126180556748       -3.17627030597992      -13.48874662529760
C            6.78444107092218       -3.95450038283032      -14.59381457414196
C            7.18833569787814       -5.28470608589515      -14.63314087193441
C            7.85731651759905       -5.84795550184965      -13.57150375195554
C            8.13150217326289       -5.06934594021886      -12.44299588114632
N            8.78950440450670       -5.45916191242934      -11.24546034355037
C            8.91636220279057       -6.90244511659830      -10.94338456891988
C            7.56161028685584       -7.56001679092273      -10.72513733072473
C            7.66455804023061       -9.05697091047427      -10.43345595624522
C            6.31828488574870       -9.71706978748611      -10.22650330680588
S            6.50841224902892      -11.51430946180173       -9.89372751691026
O            7.18110818813163      -12.03037264853275      -11.11928701095521
O            7.32443408602806      -11.56192166631112       -8.64811577529355
O            5.09637469203407      -11.95472458536447       -9.72911377068225
C           11.06158409970457       -4.46458332300131       -6.45851778888241
C           11.74607119852056       -4.51984902914196       -5.27615731932140
C           13.79107037239775       -4.67764417349475       -1.45713308039397
C           15.01280416073507       -4.03026033525076       -1.68697870439847
C           15.82197977980384       -3.65502273566497       -0.64795237496403
C           15.46046966103058       -3.90236559437724        0.68171540072237
O           16.35409749513332       -3.49760305190025        1.67755907453720
C           15.97577180295784       -3.84965277690673        3.00585219927179
C           17.03394463800149       -3.44771909311485        4.02407053692912
C           16.66412136533946       -3.83204037712962        5.45560799105109
C           17.73181118069862       -3.43527264002829        6.47515333001344
C           17.36746072431008       -3.82532246675926        7.90840172556334
C           18.43199626305188       -3.42351814875870        8.91740430281098
C           14.23394381759998       -4.53657370812419        0.91576624377145
C           13.42303936387730       -4.91003002923131       -0.12453015979960
C           10.87046631292002       -4.04747657023601       -1.60254793132046
C            9.51304891459232       -4.00035434561601       -1.41888538276498
H            0.47912797928462       -0.77989025331221        0.88216768269311
H            0.55885866614544       -2.53895634722315        0.88010987010626
H            0.49859291234721       -1.66326211837109       -0.64092624166524
H            2.82552379986752       -1.53133797476857        1.36341565378233
H            2.76555958304751       -0.65953862625385       -0.14329631041068
H            2.66951761247377       -2.83877274781531       -1.40275197719847
H            2.72320759536028       -3.71328330744507        0.10120061989121
H            4.96774901523034       -2.69208693648895        0.62019636114403
H            4.91288630617583       -1.80443422936681       -0.87626774751587
H            4.82509597042549       -3.97629433798726       -2.16170588559037
H            4.88173421646110       -4.86452832356545       -0.66680594899631
H            7.12586907307915       -3.87790289843713       -0.14460900337476
H            7.06469207057696       -2.96091143213017       -1.65787300276018
H            8.63525613203878       -6.73449476732488       -3.17637119536346
H           11.06667201197806       -6.82588603509247       -3.50474336347726
H           15.40771434419525       -5.12809103435928       -5.64831280145381
H           17.68548995846777       -6.03919753414270       -5.68816700596137
H           18.45563257186483       -7.51018118287896       -3.87556711727597
H           16.93933738026555       -8.07840420530115       -2.02579261616290
H           14.65522993605427       -7.18223378416543       -1.99004247090698
H           13.77107301091607       -7.14250788280498       -5.93896941389980
H           12.57064825637545       -7.03613466854073       -8.05941517699102
H           11.00844713588901       -6.03527250344214       -9.49609842871586
H            9.44687695975617       -3.65354630329021       -8.43417262040585
H            6.74318434496268       -2.14601510564375      -13.44538908680782
H            6.26007847642054       -3.52965054711265      -15.43377875377232
H            6.97385945841206       -5.87957632940767      -15.50574894856563
H            8.17616789453638       -6.87403038010473      -13.60635838574860
H            9.52610365010914       -7.04815905093550      -10.05283476617312
H            9.45766757275729       -7.38337260439462      -11.76264752042189
H            6.92476057204758       -7.39817315171837      -11.60160965266523
H            7.04182167261187       -7.05489791015201       -9.90263757027831
H            8.29364003713847       -9.21805603485561       -9.54871073766702
H            8.19581992640819       -9.55577640587589      -11.25422567862013
H            5.68476183437732       -9.59958702738659      -11.10548067728402
H            5.78602398909959       -9.26859631626697       -9.38781736762312
H           10.29983453236402       -3.71824231715051       -6.59196649451423
H           11.53025597342347       -3.80659842707470       -4.50037473851297
H           15.30997854002206       -3.82493566858868       -2.70037628414393
H           16.76033576465511       -3.16416702903357       -0.83576098892419
H           15.81068232922579       -4.93248323886994        3.03824263629774
H           15.02245228337676       -3.35890240311634        3.23169939160594
H           17.20662336888087       -2.36775004964656        3.95774757316303
H           17.98985467384268       -3.90699809039090        3.74850144139366
H           16.48562019565214       -4.91243297648767        5.51160653510666
H           15.70706115244643       -3.36998159897948        5.72530709800658
H           17.90774489077936       -2.35438220337686        6.42156727498011
H           18.68953001657068       -3.89382660017033        6.20184340149938
H           17.19227819155763       -4.90796747535352        7.95552352748349
H           16.40467244074373       -3.36981473872638        8.17401612981639
H           19.38927979933536       -3.89498925087972        8.68935100866864
H           18.15974211407374       -3.70817765624047        9.93583402041680
H           18.59457701238550       -2.34454892487040        8.91020870218132
H           13.92046164706537       -4.73603775112807        1.92404078947296
H           12.49167460924110       -5.41105480121425        0.07485845876476
H           11.49748805971713       -3.28721255707545       -1.16990425342143
H            9.09033429161117       -3.20819845313736       -0.82858664706486
