89
 energy: -17.071423971637 gnorm: 0.000219430910 xtb: 6.5.0 (97a52f5)
C            6.47448113944847       -2.86283124291560       -0.04064218841483
C            7.93085961973714       -2.42415484177657       -0.04792698755110
C            8.19948435230169       -1.29008830469017       -1.03739398438893
C            9.66062247296831       -0.84015308403092       -1.06181953991992
C            9.90843467996464        0.28241386531279       -2.06630567487525
C           11.35904744541799        0.74299486783597       -2.12509912690223
O           11.56321263414799        1.75517211079466       -3.11746952512215
C           10.82764732853173        2.93488452755287       -2.88888920405315
C           10.90601130411831        3.64149560130002       -1.66523110187268
C           10.16263081720228        4.76933829455158       -1.43491154185561
C            9.28868659986149        5.21583589482661       -2.42738356268483
C            9.18864667299184        4.52160631960724       -3.66387849926716
C            9.97894173765141        3.40566764318120       -3.89583830695214
C            8.20328997193555        5.21754977723406       -4.48381426538898
N            7.74819902983390        6.21011542255884       -3.70855214769352
C            8.39307987279257        6.35056111020747       -2.49214249386529
C            8.23782516294387        7.47872405541122       -1.69968237882138
C            7.35944859985319        8.45892118745190       -2.14091522465112
C            6.82217196436887        9.64188070249211       -1.50393204726651
C            7.15484131043523       10.29917054171987       -0.31893183724602
C            6.39963615717764       11.37252499370148        0.07461888907906
C            5.28297594285532       11.82163097733878       -0.66947109309134
O            4.57348499743291       12.90714448892466       -0.15774731675354
C            3.39648209780568       13.24827265295482       -0.88712775022252
C            2.61524874737610       14.37681546653924       -0.22871098639827
C            1.32832772355401       14.72091246860516       -0.97691355059235
C            0.52703218922129       15.83903700783414       -0.31075466756338
C           -0.77196971840058       16.16545782660001       -1.04933308433956
C           -1.56898270549657       17.27388183449387       -0.37942745582198
C            4.95102683030536       11.15747044765187       -1.85500933752581
C            5.71802968375506       10.08255688619842       -2.28186807514028
C            5.58490837314314        9.17562810422524       -3.41784188004831
N            6.60863767600769        8.31803623250141       -3.29727466557668
B            6.69741208477160        7.15524038983743       -4.28358245473595
O            7.13163486287343        7.52278478338400       -5.66101325832902
C            7.37599717700496        6.41742533545002       -6.44464173578364
C            7.14719311326058        6.47060943062964       -7.82465995056500
C            7.38229078203892        5.37884442698030       -8.62163186493636
C            7.86260442869236        4.19826982848724       -8.07229904312557
C            8.11684409854106        4.11477967162684       -6.72468838666665
C            7.88374278381181        5.20587738938985       -5.88850239089949
O            5.33320071284489        6.56624831244459       -4.40313681140740
C            4.38000198310128        7.50259995811639       -4.73146689596104
C            3.26203339294260        7.13063061067485       -5.48713357593258
C            2.29939245462403        8.04909692342821       -5.82141752938137
C            2.41442106992658        9.36904573275490       -5.40812772836350
C            3.48899410833271        9.76646406186654       -4.64958155013397
C            4.48482585447557        8.85658104018284       -4.29536204138941
H            6.29343592770251       -3.67391098433448        0.66778985881406
H            6.16306898986386       -3.21228121168431       -1.02657290425372
H            5.81513350563433       -2.03642422607462        0.23029087455262
H            8.58074389186782       -3.27588339670631       -0.28770959382114
H            8.23582102756605       -2.10775837826354        0.95811601723376
H            7.55589974252790       -0.43457906065403       -0.79953904069963
H            7.89556182273913       -1.60246027539608       -2.04374826828204
H           10.30676500619024       -1.69465521490592       -1.29566616739430
H            9.96568658760915       -0.51491719255501       -0.06004144526853
H            9.26508619482409        1.13740306691496       -1.83022865654260
H            9.59635605390186       -0.03888822177316       -3.06640649238628
H           12.01941472305756       -0.09389402936508       -2.37891351164206
H           11.69758912433850        1.12151266066246       -1.15532410339106
H           11.58651476463393        3.28848867833254       -0.91168026249168
H           10.23569169947783        5.30689922669563       -0.50607761280135
H            9.92971610876668        2.87515758775306       -4.82589518822004
H            8.77070300252576        7.58515351659976       -0.77378479434499
H            7.98899617003798        9.95672649603543        0.26753862668713
H            6.63778519351869       11.89634149771264        0.98324308939623
H            2.77071276244580       12.35161869552181       -0.96135043112981
H            3.69297290477108       13.53285537594578       -1.90299168695204
H            3.25431295914702       15.26334148302081       -0.14983927760730
H            2.38364796706787       14.09808690958247        0.80536843926872
H            0.70371620477578       13.82363392859980       -1.06316858102339
H            1.56649950423176       15.00241588252349       -2.00969069384387
H            1.14548541137424       16.74141026719204       -0.23565918213518
H            0.30042428013319       15.56161585283067        0.72566471468740
H           -1.38235282243805       15.25615358889946       -1.12692191556312
H           -0.53981409761913       16.44065634189660       -2.08650661033724
H           -1.83796374894238       17.00343612010106        0.64308993017402
H           -2.49467300346950       17.49463327624333       -0.91518859061967
H           -0.99142879363005       18.19832143230475       -0.32658212988943
H            4.10398280456606       11.46433620109126       -2.43392174999287
H            6.77221833606827        7.38687216927508       -8.24453816269719
H            7.19171325737958        5.43678628859438       -9.68081875638872
H            8.04062321847251        3.34549049982210       -8.70670133858830
H            8.48256740380476        3.19638719269330       -6.30302606073521
H            3.17928735620979        6.10682270255558       -5.80569134299946
H            1.44836242069061        7.74463799693950       -6.40845779346039
H            1.65386029169766       10.08304560987293       -5.67851959271957
H            3.57638622794611       10.79137991388992       -4.33784378202055
