63
 energy: -11.275936942181 gnorm: 0.000782625946 xtb: 6.5.0 (97a52f5)
C            2.51543957354209        2.45982344739000        1.37655947913455
C            3.79036816456314        1.63471326639236        1.46077053606496
C            4.14175933643937        0.94730377671361        0.14051356434294
C            5.42133360423386        0.11471461033314        0.22145117127146
C            5.75648082156935       -0.59612636011090       -1.08832145304407
C            7.02368834244110       -1.43580708440836       -1.00150761443388
O            7.29945286482538       -2.11393884490666       -2.22677983471373
C            8.44603633808550       -2.88717499340768       -2.24851225450138
C            9.30175000000314       -2.99401419582443       -1.12790537671984
C           10.47709241989870       -3.67780762068051       -1.17932513784212
C           10.90047590637021       -4.29523984038502       -2.36901890080155
C           12.14239007680083       -4.96432138382745       -2.46387310601485
C           12.55236018500685       -5.52222855929035       -3.63388911920470
C           11.75517346995033       -5.45391744057921       -4.79654112438267
O           12.22177181794755       -6.01610257713296       -5.96901947198773
C           11.44256881786689       -5.93666324696590       -7.11463876851526
O           11.81433595504778       -6.41592414802425       -8.18935358755770
C           10.17521950322672       -5.28661628714265       -7.05312804226827
C            9.70313217819222       -4.73018022156745       -5.88814551638309
C            8.43700068084220       -4.11323218362579       -5.79647474217936
C            7.94770719698687       -3.58912346554612       -4.61508648212440
O            6.61244808581269       -3.14171489104753       -4.62896870759468
C            5.74939654890711       -3.83819400708663       -3.71778870827225
C            4.36401071713302       -4.07305972338424       -4.29838576567973
C            3.42175612270181       -4.77695364323012       -3.32348102750019
C            2.04003809527084       -5.04969682746302       -3.91733910048849
C            1.09056129918802       -5.73595774045653       -2.93379656251589
C           -0.27739733896708       -6.01952229807611       -3.53489239116409
C            8.80235314451631       -3.56904433911123       -3.44142104775209
C           10.06176279385739       -4.22796204279718       -3.50671081695555
C           10.51088441551691       -4.81046684547719       -4.72036629202123
H            2.27823417221992        2.94474005890256        2.32574342526089
H            1.66105148644639        1.83862422032343        1.10288059054262
H            2.60063579963428        3.24127060504298        0.61975565690918
H            3.69688001912930        0.87673206673857        2.24916818062493
H            4.63015867235843        2.26830168346299        1.77384307922238
H            4.24101319985023        1.69915395757672       -0.65134654459597
H            3.30755965404514        0.30930497042818       -0.17463169260486
H            5.32766073851659       -0.62470653925371        1.02564145315964
H            6.26012988137897        0.75521382391510        0.51861482894498
H            5.86225084557627        0.13474498224033       -1.89779002352682
H            4.91959521394915       -1.23571191229005       -1.38950389542696
H            6.92518080122241       -2.18690262034598       -0.20983351346891
H            7.88251217149696       -0.79963399531592       -0.75994354993050
H            9.02700798127822       -2.51516880902554       -0.20632181264624
H           11.11022100370457       -3.73386933097151       -0.31052726426378
H           12.76902260896716       -5.01888209620834       -1.59050183619098
H           13.50134681846738       -6.02378281012403       -3.70011094664349
H            9.58162320196689       -5.24411280591103       -7.94613038197393
H            7.79954542227008       -4.09680462474101       -6.66050274286899
H            5.68677730883701       -3.24391556212714       -2.80117036411394
H            6.22390573476545       -4.78875549573101       -3.44816193976364
H            4.45479413741997       -4.65651920511639       -5.22123150858078
H            3.93505798966092       -3.11340944606936       -4.60757451648552
H            3.31895727316643       -4.17563440880800       -2.41255429087603
H            3.87270841595189       -5.72019469434886       -2.99339697513140
H            2.14304926464223       -5.66482135904179       -4.81926755082255
H            1.59481223337879       -4.10913061069349       -4.26305024636091
H            0.98677925378040       -5.11193829553635       -2.03642197061471
H            1.54794146391671       -6.66914963094982       -2.57979165902162
H           -0.76206276679090       -5.09881808383778       -3.86483700485192
H           -0.94523470841437       -6.50526135843093       -2.82010380623147
H           -0.19796643068691       -6.67238696307925       -4.40618497562465
