90
 energy: -16.888994692233 gnorm: 0.000529606554 xtb: 6.5.0 (97a52f5)
C            2.51768509224425        1.09532979681677       -3.05484620757199
C            3.91718499088040        1.20401933071612       -2.46982489009258
C            3.91661706527784        1.66341453157155       -1.01080215242330
C            5.32078548703776        1.76376985627998       -0.41487922116192
C            5.32053881113291        2.19933337401590        1.04948327266818
C            6.71701399232184        2.25042007360103        1.65392098339396
O            6.68805121250033        2.59486539845417        3.03707352361928
C            7.89059309198461        2.39386279345190        3.71795768980438
C            9.13177704434677        2.14244027027908        3.08103979978924
C           10.27708014731222        1.90778271896406        3.79014824341163
C           10.23880162155700        1.91218032644422        5.19042951623514
O           11.24346245341652        1.66116961515233        6.11376487756996
C           10.66470530901525        1.75648087355796        7.36316231092641
C            9.28029809978293        2.10136186175817        7.24358438829042
C            9.00601315442188        2.19142563594424        5.83614644222983
C            7.85074999051567        2.43299631326402        5.11202297126340
C            8.71547933371313        2.19259373072192        8.51344114294193
C            9.74268222379385        1.88688364172906        9.43692380746247
C            9.67923039150240        1.80331121026953       10.84512230846459
C            8.43323136715097        2.08574130301577       11.58731264387479
C            7.26930821536993        1.36812377834551       11.28770185765809
C            6.09983968118920        1.58989659844768       11.97351891344254
C            6.05886358013649        2.53627557000649       12.97590661240475
C            7.19036466039332        3.26604724925309       13.28120334277649
C            8.37761466033384        3.06886501976949       12.60003944069790
C            9.55912973570634        3.91153953843055       12.93664700202919
C           10.85293241557776        1.36031131362814       11.49477464617546
C           11.04076771890849        1.01317853404232       12.85363581305289
C           12.34962469384510        0.55164388601440       12.97123099904492
C           13.31157430028859       -0.01039637074665       13.87872928238561
C           13.25898882173306       -0.35325350856896       15.21932011937768
C           14.36855023254913       -0.94484692583704       15.82405580130279
O           14.24647590389872       -1.30759392894299       17.16670478367619
C           15.30367183867510       -2.12133657090795       17.66954485875081
C           14.98525937748560       -2.67961583323189       19.04984989903842
C           16.08042732212534       -3.59767881083039       19.59088198079032
C           15.74338633645768       -4.18891290196901       20.95990228648096
C           16.83016182518536       -5.12357542059901       21.49399271000524
C           16.48134855581692       -5.72048304452513       22.84879576682408
C           15.53601613262502       -1.14929167553178       15.04659569453325
C           15.59592322067941       -0.81057778100699       13.72317498038095
C           14.47635788684187       -0.24279913810645       13.10153830641030
O           14.28446639844185        0.14157537118294       11.78242841884315
C           12.98941166248910        0.61012121368118       11.69184254116644
N           12.04762290803921        1.09650325467522       10.83797614782562
B           12.24911119928221        1.29773807548344        9.33098175657051
F           13.12254144337147        2.35371281932645        9.12943880411209
F           12.72316694495224        0.12103426222664        8.77443457890190
N           10.89403106125174        1.64196314143934        8.69987870791758
H            2.53362827453738        0.76569363401571       -4.09563898589187
H            2.00099163280561        2.05573469002115       -3.02166988494547
H            1.91026797408092        0.38332163251337       -2.49391810973116
H            4.52373176475670        1.89675603679191       -3.06745050151509
H            4.43278807967953        0.23776528160376       -2.54478923515623
H            3.31118654970549        0.97453602423206       -0.40992164409356
H            3.41139490511314        2.63299355946651       -0.92933059729561
H            5.92516150041831        2.46096893472632       -1.00707228099847
H            5.82757828479668        0.79594919053146       -0.50859097378611
H            4.70098137928090        1.51627788098512        1.64134364909783
H            4.84323488817439        3.18010134266573        1.15280142438880
H            7.33788362972791        2.98623928351470        1.13079675687746
H            7.20266431533017        1.27278461176924        1.55669915582746
H            9.17734748879043        2.14232652393113        2.00746749260794
H           11.21085572057219        1.70968004816472        3.29518722368084
H            6.92095236427702        2.62259567869602        5.61372527160512
H            7.69303683870220        2.43228203421984        8.74172763108453
H            7.30830757786582        0.61727813826488       10.51752585321000
H            5.21642010077177        1.02149696552445       11.73256551880272
H            5.14333497525668        2.70901399648732       13.51759023146207
H            7.15330999213271        4.01076953121274       14.05795576725603
H            9.26854691450558        4.95503207797713       13.06278103332109
H           10.31256946714024        3.87533169508877       12.14965893496652
H           10.02348941719441        3.57838924093407       13.86514142780311
H           10.30234199621516        1.04659799089295       13.63386423157015
H           12.36551061439421       -0.18888297244478       15.79101796091135
H           16.21633866543971       -1.51577991081313       17.70017148684249
H           15.46846808853983       -2.94154831383862       16.96164487951865
H           14.03344000368245       -3.22069861973630       19.00488470869317
H           14.81007312662716       -1.85072209420097       19.74460628934451
H           17.02738968943712       -3.04810388039734       19.64852713389267
H           16.26396564255686       -4.40920339048815       18.87674960178036
H           14.79139361832566       -4.72961512644019       20.90158463712056
H           15.56820425385001       -3.37915271815157       21.67790318794344
H           17.78014592442836       -4.57706516554144       21.55535908680297
H           17.00930610842988       -5.92422222831833       20.76470407953163
H           16.33294969746287       -4.94028989284915       23.59699048378343
H           17.26520509870256       -6.38507792561730       23.21768553855578
H           15.55730029105534       -6.29861207508793       22.79850763299511
H           16.40462486504484       -1.57869089740480       15.51106332728948
H           16.48544866758809       -0.97791117959854       13.14275307184193
