96
 energy: -18.653744845157 gnorm: 0.000910118891 xtb: 6.5.0 (97a52f5)
C            0.45238192206463        0.94853133406481       -1.20645833349020
C            1.95907974707188        0.81386434586514       -1.04827392837145
C            2.35866008132460        0.13941555122428        0.26506976727430
C            3.87120896667927       -0.01431960609025        0.42784901354145
C            4.25893054175089       -0.69666850807338        1.73861698178192
C            5.76762162526154       -0.86925549908292        1.90770960653776
C            6.12708994328825       -1.53154854936193        3.20539197591680
C            6.45140304458066       -2.90526030614216        3.28016280272955
C            6.57648477499003       -3.39972478968222        4.55434273199232
C            6.90534204106666       -4.76076087726444        4.93476910502734
C            7.30404243804145       -5.71597665030815        3.98548798862249
C            7.61810362234590       -7.00297090159397        4.34928086222760
C            7.52911163855016       -7.37598200940803        5.68772950174329
C            7.15490451587772       -6.42627187558035        6.65102749769411
C            6.84528121999264       -5.14057759736582        6.28129402413484
C            7.20868992357450       -7.03924561271453        8.03105816263340
C            8.20138815750998       -6.32463448713526        8.98478839477770
C            9.54624833261294       -7.05751820712295        8.82464978812218
C            9.20837967558387       -8.50391841144341        8.40579614614846
C            7.78695444818876       -8.47939593808775        7.78599995441121
N            7.80546791656132       -8.61911583194254        6.30334229895170
C            7.83200614841897       -9.90071288200203        5.69101546521552
C            7.21088017567784      -10.11748126870686        4.45294148914600
C            7.21706454652143      -11.35200355099002        3.84749558906265
C            7.85106416193439      -12.41079070160940        4.48553698066475
C            8.45755653609633      -12.21924974682104        5.73061348431244
C            8.44364063318998      -10.98320994599371        6.33264902249598
C            9.06209776798633      -13.54253203092449        6.21160733661340
C           10.58280088938518      -13.41627786197209        6.37795364492809
C            8.40053583316022      -13.99685540255116        7.52006766246028
C            8.71818611260818      -14.50096052580923        5.06596404625353
C            9.00557657107314      -15.84111335795725        4.90718203940995
C            8.58430031326391      -16.48632890477811        3.75841496760161
C            7.88394110544104      -15.80182818604411        2.77800959602109
C            7.59227769004046      -14.46184048013658        2.92703499828222
C            8.01214997947057      -13.80875495491620        4.07812046684125
S            6.26381304274653       -2.12794175846483        5.69566807894027
C            6.00701169581381       -0.93320699877532        4.45020874620133
C            5.68225729583663        0.43582103271881        4.76506987310786
C            6.19013101998068        1.56359871423159        4.19859580164072
C            7.32948037442976        1.70215360460545        3.28129297920511
O            8.03902137558937        0.82319478445278        2.83353075749800
C            7.48842060207186        3.14069559099470        3.02111784214640
C            8.39153264244356        3.80341470572912        2.20926166892627
C            8.34555905607574        5.17998646203824        2.15098972094883
C            7.41453508754078        5.90311294114310        2.89852385398698
C            7.37780653337888        7.39374567729434        2.82834992594006
O            6.31091878270703        7.95296322977640        2.64364947326937
O            8.56607555361104        8.04863925089299        2.99072359800820
C            6.50546896255839        5.23124054083871        3.70491940037170
C            6.55034009880118        3.85310403098854        3.76319768803481
C            5.72652256139074        2.91215541119180        4.53610382530623
O            4.83129719867620        3.19745564062533        5.30632898985914
H            0.18025297883365        1.43083949717111       -2.14746737210845
H            0.02233607865514        1.54070061876548       -0.39720910219311
H           -0.03495457030510       -0.02743965993860       -1.18522854977921
H            2.43481626810819        1.80121682756072       -1.10803022343016
H            2.37683240089241        0.24505345453838       -1.88898432627999
H            1.88084135304353       -0.84512737468276        0.33175533749418
H            1.95437327395422        0.71004761729279        1.10948233974888
H            4.35140671802635        0.96964216751259        0.36834147315095
H            4.27711466444517       -0.58292946844460       -0.41719507240634
H            3.77072605725491       -1.67627515528627        1.80452951528788
H            3.86001689676514       -0.12321405760729        2.58372868664768
H            6.26384842461919        0.10237737863110        1.84159316455486
H            6.17184072558821       -1.45655847845619        1.07608952315865
H            6.55896119561276       -3.51402234505943        2.39750295133858
H            7.38121787252357       -5.42633777734827        2.95288655164416
H            7.97422962875172       -7.70684883044310        3.61913504624112
H            6.55749305496646       -4.42197461731787        7.02555295962995
H            6.19458306365129       -7.07984774774794        8.45555839427918
H            7.85075260881909       -6.37903989214542       10.02169404744144
H            8.28476053813795       -5.26201060495449        8.73188482461624
H           10.14032350800859       -7.02747700656869        9.74665907887144
H           10.14971277445416       -6.56952841077898        8.05008980083327
H            9.24406573339852       -9.17782964756293        9.26923766546353
H            9.93042545146489       -8.88301908852742        7.67526532881371
H            7.13559409480127       -9.25642771115952        8.20987620907102
H            6.67716648552899       -9.30749550165090        3.99095207553916
H            6.73378025029085      -11.50949374159780        2.89962073448389
H            8.90684431217227      -10.85555225814473        7.29190161808302
H           10.83044201667921      -12.68790021884253        7.14878131223603
H           11.04440503796591      -13.09255319119300        5.44603897983517
H           11.02381061139201      -14.37144593187574        6.65927769214109
H            8.59077154856191      -13.28307937351287        8.32037029187224
H            8.78181483005548      -14.96787637443543        7.83258749997265
H            7.32200560379187      -14.08178817358583        7.39391601997423
H            9.55164091638782      -16.36681819693583        5.67055604725222
H            8.80493628439882      -17.53243954359719        3.62426443667510
H            7.56470494985469      -16.32103381294728        1.88936852202583
H            7.05102734870319      -13.92203921855054        2.17036925164803
H            4.98284704731395        0.58745037720168        5.57261194949304
H            9.11014211100282        3.24027819529168        1.64007396985814
H            9.02712941886926        5.71366824795684        1.51159120736992
H            9.29045496739311        7.41760051180602        3.17502937414760
H            5.77586054012281        5.77551988547771        4.27631741006628
