88
 energy: -16.057446324531 gnorm: 0.000922406534 xtb: 6.5.0 (97a52f5)
C            1.17172271826036        0.86324100532330        1.26898557627416
C            2.36626174588267        0.34251897402220        0.48484980271652
C            2.91388458143730       -0.97285671681959        1.04181603602185
C            4.12853612653887       -1.48926973587525        0.27079250019853
C            4.68105898706973       -2.79981392219882        0.83027242806905
C            5.91855357288071       -3.29268723539605        0.08031937144749
C            6.47044482396830       -4.57162169877408        0.63471578519070
C            6.18504764081519       -5.78922733289766        0.04286752902996
C            6.68617689825928       -6.97773006114639        0.54975294230312
C            6.36322754896722       -8.23651458489495       -0.12160137562540
O            5.63520281779623       -8.26750540036912       -1.10107441999957
C            6.95389754152516       -9.45639954035152        0.42863429035150
C            6.70552658804840      -10.67090228738562       -0.19101276658649
C            7.25459304177326      -11.85061825458809        0.27989880172132
C            6.97912893701295      -13.16062225915779       -0.39650836723413
C            6.10092663093859      -14.09403660152054        0.43770856053316
C            5.83561709301795      -15.43475903894003       -0.24606873084148
C            5.00181497229318      -16.38759864130652        0.61035959271827
C            4.74195632180309      -17.73304009143201       -0.06928686558827
C            3.92081694962479      -18.67962717667568        0.79268506915910
C            8.05729272496125      -11.79673562685057        1.40460276454684
C            8.31799458906056      -10.60182732033020        2.05518482286514
C            9.16525443813890      -10.60649720089055        3.24706174695130
O            9.64585821896665      -11.64043292445258        3.68332090453276
C            9.40990062300580       -9.31865370277385        3.89532778516729
C           10.19953777541242       -9.27085238336489        5.03291188771724
C           10.45881274880940       -8.07886380983422        5.68498834743801
C           11.33667289197903       -8.04170792436211        6.89924861630710
C           12.80724394092849       -7.79585406022900        6.56232531815322
C           13.70394855693199       -7.75501624525420        7.79903304314238
C           15.17538552803344       -7.51049301243716        7.46491619191870
C           16.07128621977385       -7.46769550818542        8.70406451485484
C           17.53443187445646       -7.22671917634988        8.36635648390966
C            9.92493285703500       -6.91497813666000        5.16226459417385
C            9.13214586473822       -6.92617111538310        4.02596638385575
C            8.59420208787298       -5.66577731645537        3.51560020426524
O            8.82192829713027       -4.60344313972899        4.07235635368404
C            7.77053409612245       -5.73280275592828        2.30888265207413
C            7.25638890360137       -4.56336264783721        1.77261304347547
C            7.50083276684765       -6.97017695300734        1.69664112233183
N            8.03854740572891       -8.16975095013473        2.21516975769169
C            7.77099466896969       -9.39939126797752        1.57230841531574
C            8.85309213840967       -8.13864558276812        3.36964478417930
H            0.79016306752271        1.80094679913564        0.86005546867394
H            1.43363473510732        1.04297981167226        2.31298661912414
H            0.35182733467444        0.14303310926328        1.26277263450516
H            3.16746434408099        1.09321777688582        0.47585077891147
H            2.09488170265103        0.20435546617743       -0.57005418546257
H            2.12353236186680       -1.73309517212154        1.03682966722435
H            3.17782020787353       -0.84278666509158        2.09831340112969
H            4.91708588057365       -0.72722307688078        0.27586275602419
H            3.86645126104694       -1.62134322069987       -0.78573539108923
H            3.90361311229494       -3.57246207497224        0.80407577344424
H            4.92242626797475       -2.67475581805028        1.89240201267215
H            6.69879813267467       -2.52350810492438        0.10609658905776
H            5.68075120090642       -3.42646970615039       -0.98087957784948
H            5.56399790959468       -5.82260449261505       -0.83413715054985
H            6.07303792230798      -10.68658786047147       -1.06018357578038
H            7.93172486094771      -13.65243196430971       -0.62532762427687
H            6.50618806316488      -12.98013939783359       -1.36857116870965
H            5.14996143396846      -13.59764648297132        0.66530401914328
H            6.57179507282479      -14.26670996792104        1.41273900003562
H            6.78935215211228      -15.91104308672743       -0.50149071003497
H            5.33476513913952      -15.26610035182113       -1.20651063946185
H            4.04698702140710      -15.91314349551171        0.86627612302337
H            5.50425708069731      -16.55273804764830        1.57092939191542
H            5.70163058302760      -18.19777637933825       -0.33110829271976
H            4.23751150928200      -17.56241896816274       -1.02918795763978
H            4.42517106645248      -18.89030460414304        1.73740387283933
H            3.74110581462291      -19.63523228384994        0.29556127777902
H            2.94821562573651      -18.24785211039250        1.03583776248668
H            8.49379217247125      -12.70034064795314        1.79023544769242
H           10.61713257141029      -10.18640022212781        5.41142351488539
H           11.23397875122975       -8.98246850875397        7.45141730716086
H           10.97687746842642       -7.26500936176169        7.58329336579250
H           12.90318032651695       -6.85707130637238        6.00432613547140
H           13.16012618090330       -8.57311778902024        5.87436678003155
H           13.60426806594992       -8.69405467200817        8.35617734451421
H           13.34829216686642       -6.97714057922503        8.48506678228514
H           15.27495359659397       -6.57222903785465        6.90612693504465
H           15.53144661188126       -8.28927453509006        6.77993064882654
H           15.96246514600286       -8.40688459131208        9.26195835067993
H           15.70819884588509       -6.68828906252944        9.38653843804014
H           17.92338801537112       -8.01171459205940        7.71580235909403
H           18.16214001594151       -7.19922420601241        9.25953081098457
H           17.66716263407828       -6.27879270626589        7.84221221002329
H           10.12579655025905       -5.97479458443436        5.64351082466969
H            7.47945526077613       -3.63025386610181        2.25799637192249
