88
 energy: -16.367136250344 gnorm: 0.000330149303 xtb: 6.5.0 (97a52f5)
C            1.20918092247804       -0.67919011628157       -0.02501822880614
C            2.71120666430952       -0.43975751244736       -0.02763467108653
C            3.13576627941289        0.67473321435812        0.93035363527154
C            4.64222152249020        0.93483933230640        0.91711436598908
C            5.06256548416441        2.06056541207554        1.86137176375164
C            6.56229810298099        2.35454717546532        1.81261288172747
C            6.96439963953515        3.48696984399503        2.70847718060827
C            7.63615779086696        3.25449635981102        3.90000046487951
C            7.99798711837621        4.29905619566181        4.73920800400696
C            8.70663439862274        4.05440504716876        5.96136221220399
S            9.07065534591778        2.59123366629316        6.36317058900566
C            9.08530550236634        5.14092619880311        6.81685433945724
C            9.77918418935485        4.91521169884614        7.99704392048278
C           10.15256565425498        5.95803811403323        8.83334013512079
C           10.91663471592680        5.64755606399767       10.09097997992491
C           11.21508555758392        6.84495079995420       10.99689329379737
C           11.98299191151617        6.45773450290628       12.26060018306584
C           12.28654874862468        7.65226992258544       13.16514357481728
C           13.06488140177780        7.26763349926050       14.42468860181803
C           13.36035857666017        8.45930095230372       15.32246784880377
C            9.81235348253947        7.25179817001638        8.46160631388221
C            9.11835356604811        7.51017834777101        7.28829743507749
C            8.77101034767057        8.85102358590972        6.91889962145329
S            9.17846002185127       10.03522069306913        7.84985114418297
C            8.05448785714184        9.11156467470027        5.70489735055384
C            7.70840623350520       10.40506406166319        5.34053393214084
C            7.01450028955874       10.66999017254087        4.16810019421172
C            6.67119959096500       12.09349773704429        3.82495025644650
C            5.81173333543252       12.27829271111603        2.57173169049402
C            5.46834826009898       13.74080368927949        2.29060872869223
C            4.61904341001595       13.91941083095529        1.03190608231884
C            4.26814191100211       15.38026619591342        0.74506064588944
C            3.42773492679461       15.54765480505126       -0.51163949580326
C            6.67324723084324        9.60021179437293        3.35160091968911
C            7.00471446335423        8.29604578194885        3.68842917881337
C            6.64356976355666        7.20218641661671        2.83595163380782
S            5.87120365335278        7.48187396629632        1.50913227286059
C            6.98474755522586        5.85638672760657        3.19145282660475
C            6.64315830726757        4.79245524478380        2.36978502176168
C            7.67588626573250        5.62680209785978        4.39674479374138
N            8.04008445397024        6.70161840659084        5.23852838223910
C            8.74223386274604        6.45270099504565        6.43864812595794
C            7.70338010136510        8.02617567770198        4.88003084292172
H            0.92006793137840       -1.47671691969461       -0.71256127810571
H            0.66613114291521        0.22056577993294       -0.31884234885692
H            0.85597874999625       -0.95812372866207        0.96899785724237
H            3.05167472176791       -0.19412488488125       -1.04194805743897
H            3.24191995028577       -1.36436884296539        0.23404113310445
H            2.81297856032147        0.42861042495366        1.94903447177966
H            2.60185882687797        1.59871216105826        0.67762466745831
H            4.96351624192745        1.17405061976248       -0.10369708773485
H            5.17914492335096        0.01484296763740        1.17727074512165
H            4.76967184599746        1.81417420831904        2.88884569460292
H            4.50365200953939        2.97170133842972        1.61733345857479
H            6.86164785892547        2.58814104249984        0.78465541140954
H            7.12636717208348        1.45438810167771        2.08090645623402
H            7.89241676203981        2.25220423207062        4.19238729991430
H           10.02895276916365        3.90167153338233        8.25492826731969
H           11.85872398346294        5.16025295720570        9.81515948664269
H           10.35901504342344        4.89576491909580       10.66107171710546
H           10.27720140579570        7.33952525056889       11.27585366252587
H           11.78806593458156        7.59582237781220       10.44032731360636
H           12.91947877238770        5.95916874149598       11.98328622228407
H           11.41463578737904        5.70609026823568       12.82132698351431
H           11.34964488655574        8.14707964073442       13.44786388167206
H           12.84844377990503        8.40686515234401       12.60172975074290
H           14.00073947015374        6.77240385633604       14.13481521749957
H           12.50134009302293        6.50696967235605       14.98045162934618
H           13.95014658792143        9.21217633180479       14.79707365658181
H           13.91697589729432        8.17084561664075       16.21654125606159
H           12.43922527964261        8.94334921764686       15.65095826047630
H           10.07938877758489        8.09059923379302        9.07729851588369
H            7.99257793703460       11.21124662987995        5.99285157969372
H            7.60194684495186       12.66106654615520        3.71298887604203
H            6.15841163880798       12.54479825909836        4.68202451286591
H            4.88596976667854       11.69942917197009        2.67184524010250
H            6.32956892395543       11.85461545445385        1.70323769743604
H            6.39176566115862       14.32490332460786        2.19822328524332
H            4.94417916227430       14.16908438868832        3.15330485364692
H            3.69803943979954       13.33122256268766        1.12347447690569
H            5.14527100006997       13.49172235912426        0.17003600228672
H            5.19320473606897       15.96528017740285        0.66122201111927
H            3.74176036064510       15.80318123216072        1.61058638540387
H            3.95126109398086       15.16589578352501       -1.38968250587162
H            3.18216577896386       16.59401470376494       -0.70434099890907
H            2.48794421509324       14.99864462170170       -0.43343516251099
H            6.13924082097817        9.75605424365782        2.43266204131172
H            6.11791903659419        5.00069611655176        1.45510948791631
