86
 energy: -15.857527952132 gnorm: 0.000623008294 xtb: 6.5.0 (97a52f5)
C            1.73228715350232        1.84397531232140       -2.75991771600951
C            3.22774703773323        1.97741149903626       -2.51750170526653
C            3.59584106319793        1.92159681887789       -1.03381143447113
C            5.09895608607590        2.04831040853546       -0.78582307683894
C            5.46799451114145        2.00721857566753        0.69673493091424
C            6.97368150865304        2.12089827290030        0.94033773255192
C            7.33298271208051        2.09468051394514        2.38335222110838
C            7.31836429968930        0.99471305431832        3.17279818728723
C            7.69983496712171        1.24561681882687        4.52162751893676
C            8.01016807582128        2.56490951462540        4.76494434983548
S            7.82204669792692        3.49669764543035        3.30397317997197
C            8.42237174469178        3.05914057258850        6.04445921914213
C            8.72229435324006        4.40260742715784        6.23664278973568
C            9.12238748818639        4.89037079087249        7.47425048123898
C            9.22887474662624        3.99307952075933        8.57165218206313
C            8.93046563285148        2.64969773439206        8.37924166184487
C            8.52907932232929        2.16199442663143        7.14238286631852
N            8.22997908590965        0.82701616009896        6.96347428235922
B            7.81081732118074        0.28726940117864        5.70825911578028
C            7.41021653668952       -1.21855346096886        5.57825636486670
C            8.25398322098032       -2.11243963712372        4.94949403319673
C            7.89042066062006       -3.43788896427908        4.83751423041420
C            6.68289430366424       -3.86844262398578        5.35468388982906
C            5.83899850373020       -2.97166467778573        5.98262854004661
C            6.20321495514997       -1.64641136405710        6.09385287913356
C            9.63380984331673        4.48663984616157        9.85329056137518
S            9.81930654309276        3.54829542820612       11.30983380392113
C           10.28534583151644        4.94875056746802       12.24211456710691
C           10.60497981660338        4.90626953302090       13.69489129072803
C            9.36462057969211        4.71139493363375       14.56789941172760
C            9.68718759490288        4.62902265411053       16.05949398312162
C            8.44974519774597        4.39560287446755       16.92652601379878
C            8.77342423736697        4.29244585589128       18.41787134701471
C            7.54061999106493        4.04139295347863       19.27266326546588
C           10.29679998258421        6.05440751707129       11.45928984631517
C            9.93355647891324        5.80696507841400       10.10436138034036
B            9.82103815099482        6.76724223313821        8.91812324619164
C           10.15601387045254        8.28769215775234        9.06346110638254
C           11.44384742467432        8.68665586491004        9.36211670194968
C           11.73579204594899       10.02791937137691        9.49298660836863
C           10.73918424953515       10.97059208257103        9.32330703838927
C            9.45086001643796       10.56985254851837        9.02271401429687
C            9.15986342776051        9.22815216515263        8.89306779737995
N            9.41622584402071        6.22571374041682        7.65863751608501
H            1.48292484212668        1.88964838922106       -3.82246501917356
H            1.17854968936774        2.63977773268342       -2.25830968003318
H            1.35290259131308        0.89585326386943       -2.37428887914287
H            3.59774087582251        2.91785718904266       -2.94719053075573
H            3.76954507326256        1.18793758742410       -3.05523028021428
H            3.22833278464298        0.98456097013530       -0.59794870942085
H            3.06510945114563        2.71440468582573       -0.49269153585856
H            5.46838203266218        2.98028009745800       -1.23073727018466
H            5.62838994132968        1.24914481181777       -1.31881457677815
H            5.09247697624224        1.07993355805838        1.14597476606124
H            4.94909959346014        2.81235247294943        1.23088377012958
H            7.35245443312081        3.04783340811632        0.49423990992557
H            7.49873260454092        1.31010688090465        0.42176938619353
H            7.04377252873668        0.01413534087098        2.81905280492551
H            8.64124359480004        5.07884174796705        5.40662061173565
H            9.01125957276561        1.97363635890261        9.20944126660841
H            8.30406114345130        0.21928654640115        7.76829701357826
H            9.19005699376266       -1.76058768316901        4.55107736342757
H            8.54792348668575       -4.13779633193685        4.34796715061085
H            6.39914071955701       -4.90476673955813        5.26890476043113
H            4.89725024823433       -3.30747611648937        6.38531257019067
H            5.55759202738712       -0.93483091003084        6.57912909770114
H           11.12541192746772        5.82676018431905       13.98442542495499
H           11.31945426722562        4.09534518919426       13.87872663802991
H            8.83897500679921        3.80147756699119       14.25387201262082
H            8.65466619371086        5.52701174216881       14.38503299036926
H           10.19496898031691        5.54726505198851       16.37876837593695
H           10.41396646071286        3.82623764255265       16.23365466751234
H            7.93824385896102        3.48258552579393       16.59806055965810
H            7.72558388642877        5.20254496717338       16.76087515493198
H            9.27926996895664        5.21109891416066       18.74358722166042
H            9.50978032290031        3.49284254222473       18.57396716582660
H            6.81154914471823        4.84594835045978       19.16020141792578
H            7.78556656328134        3.96607767804729       20.33453380774107
H            7.04281966764537        3.11364503510349       18.98436603612681
H           10.55177645489449        7.03676336027003       11.82256629231757
H           12.20886685612614        7.94026815221039        9.49049876640598
H           12.74043244943563       10.34066047043774        9.72699438569521
H           10.96698497378691       12.01922678619367        9.42494355355832
H            8.67406494197266       11.30526035231513        8.88994925771788
H            8.16134695881715        8.89979723571204        8.66125215731736
H            9.33351679574331        6.83820884663230        6.85848389998543
