115
 energy: -20.420204446849 gnorm: 0.000769544695 xtb: 6.5.0 (97a52f5)
C           -1.03820861903877       -0.86959280936353        0.46818087958878
C            0.37792154465571       -1.33969567188993        0.17584372404604
C            1.09349626361974       -0.46203214572037       -0.85223859113085
C            2.51910312874370       -0.92736492178252       -1.14720795384022
C            3.23544747204441       -0.04840528188769       -2.17165279799250
C            4.66778647497779       -0.50402769397882       -2.45284292733638
C            5.36494434334737        0.35520035413236       -3.44458665651235
C            5.80598131335799        1.63677435897166       -3.20931549460455
C            6.40425766490543        2.18108748827040       -4.31305457144820
C            6.50012162325461        1.44130423273033       -5.46249029152402
S            5.73279287570854       -0.11551434313677       -5.09402679945547
C            7.08287658264930        1.81367825164905       -6.68672834355750
S            7.16031735238911        0.77365235499342       -8.09867008992832
C            7.98672143959560        1.96744741103860       -9.03438741942945
C            8.42146272809659        1.79970081579527      -10.44577990132075
C            7.71591906451839        2.76090326734349      -11.40404675805121
C            8.18948202998083        2.62317189993105      -12.85012441032701
C            7.50835681222810        3.61233059226958      -13.79580782358240
C            7.99055003194418        3.48925133361882      -15.24209857388986
C            7.31947154024785        4.48706628624404      -16.17311007346837
C            8.18211829286269        3.10742302373750       -8.28320744432810
C            7.68746510995388        3.03442368041808       -6.98480473539798
P            7.89095846436007        4.48502627446379       -5.92047572658425
C            6.24104006312406        5.13429206008025       -5.60846281366721
C            5.57677926210506        5.60273702188708       -6.71799581159786
C            4.29844669756039        6.11939725623239       -6.59077069099873
C            3.69325214179596        6.15605438381598       -5.34983841311140
C            4.36044801230802        5.67419236445306       -4.24064649687028
C            5.63698494297919        5.16086933117694       -4.37209096464393
C            8.83551639751041        3.99804467127028       -4.46731827499781
C            8.70534994427917        4.63787860014356       -3.25735322990636
C            9.45807548799309        4.22429060628115       -2.17391684194017
C           10.34350280689598        3.17361140405236       -2.31171802028924
C           10.47878606494177        2.53893096656345       -3.53073491695435
C            9.72150779950136        2.95558301195058       -4.61123841535805
O            8.73298905109059        5.59021697645868       -6.80253746906255
B            9.64866950725664        6.54295409251008       -6.38944073901735
C           10.73503430399197        7.02645000624691       -7.42560481502969
C           11.55714737829099        6.05053610793942       -7.98008640807294
C           11.42933006658034        4.61685310716994       -7.60366513997922
C           12.52062733552248        6.43293015955652       -8.89797922966567
C           12.67927258955402        7.75875452969062       -9.26971165706354
C           13.70368788517350        8.14660412205095      -10.27918738923946
C           11.83593728656980        8.70857988628725       -8.71367568959343
C           10.86374655245255        8.36193049458116       -7.78899149556997
C            9.96241311235050        9.39986331538632       -7.22160405122043
C            9.62599807787690        7.11201888445205       -4.92398179760511
C           10.69613742379113        6.90635628341905       -4.06124976101863
C           11.90639194696752        6.16703502529960       -4.50877803581896
C           10.59644237459120        7.36845558120987       -2.75886869014821
C            9.46211183899260        8.02729034686071       -2.30931591404850
C            9.35308232129406        8.47953764556449       -0.89464419117708
C            8.41210269529351        8.22072035448948       -3.19347996592553
C            8.48000429979394        7.77643101066800       -4.50235494207138
C            7.36270670984417        8.06820245761902       -5.43799904417988
H           -1.53833898088129       -1.50454374149775        1.20313121599922
H           -1.64902577720066       -0.87082331997164       -0.43641622658475
H           -1.04291575864939        0.15013163598890        0.85775846309077
H            0.36549338027059       -2.37840294512079       -0.18019304530760
H            0.96639363943376       -1.36515426211020        1.10253896835393
H            1.11089829301760        0.57691012488594       -0.50092234797180
H            0.51393617259884       -0.43751223240766       -1.78306803620750
H            2.50270482267133       -1.96576504406752       -1.49998405353116
H            3.09793893022151       -0.95215852286378       -0.21591029141714
H            3.24344771156580        0.99177362908627       -1.82437055871245
H            2.66608419381363       -0.03061110681830       -3.10872018191443
H            4.66428345750939       -1.53899945528090       -2.81414310761753
H            5.24457229177607       -0.52066690023699       -1.52064182705022
H            5.69266546606140        2.15121859624424       -2.26514585507909
H            8.24378679341411        0.76402994915630      -10.75787879705135
H            9.50687374974225        1.94273659220321      -10.50637509721275
H            7.86933996096356        3.79282215831377      -11.06551444624932
H            6.63184864463686        2.60291658980048      -11.35009041233072
H            8.01769133761048        1.59759048322523      -13.19956839634150
H            9.27693406841170        2.76120490172625      -12.89504370776302
H            7.67537637638321        4.63599012447712      -13.43884805522791
H            6.42140743596275        3.47140991563474      -13.75594359843938
H            7.81666289433066        2.46446962186663      -15.59657391381385
H            9.08065245625303        3.61853911393744      -15.27268006660860
H            6.23630623398682        4.35217129048429      -16.18146460001780
H            7.67148775905880        4.38906067246770      -17.20253036589630
H            7.51274077085360        5.51385597021057      -15.85653423174717
H            8.67305645255206        3.99002277161560       -8.66617061216762
H            6.06429790968933        5.56457719985897       -7.68094384421020
H            3.77839684217783        6.49103375260733       -7.45851385966482
H            2.69791640416897        6.55692255853738       -5.24788082339223
H            3.88479488523351        5.69298984145595       -3.27351908461001
H            6.14661789648575        4.75385291632787       -3.51612023344753
H            8.05014824485425        5.48804658197951       -3.17007627330558
H            9.36220565530349        4.73009841656801       -1.22697822712134
H           10.93299369623313        2.85246924658899       -1.46843167235798
H           11.17124977228339        1.72043264990433       -3.64133586960164
H            9.81264809860394        2.46401406044834       -5.56751068657076
H           10.60426058356621        4.46417210744724       -6.90923248656686
H           12.34091093198762        4.25543892636096       -7.12580799099540
H           11.24231526479914        3.99870249460362       -8.48269153421397
H           13.15902019823723        5.68363780892236       -9.33206279242630
H           14.58764148451671        7.51144482981208      -10.20696827190135
H           14.02607411811564        9.17903853322740      -10.13733631173766
H           13.30536517372542        8.05434436286514      -11.29045994413877
H           11.93814034916858        9.73757355931338       -9.00989148977938
H           10.26185738824338       10.40151692426071       -7.53325771757495
H            9.97850213921677        9.37711434291259       -6.13161495903018
H            8.93574711976539        9.24171812407876       -7.55351578424273
H           11.65770753421256        5.13522459983286       -4.75714767351918
H           12.67050463152434        6.14516333826228       -3.73129344684270
H           12.34541420305001        6.63418064924481       -5.39044698372611
H           11.40945840020883        7.19790545818137       -2.07565134815722
H           10.33827492139618        8.64048411556991       -0.45439434694641
H            8.83157156329264        7.73583416444547       -0.29004268995959
H            8.80107947559285        9.41810425200894       -0.82361390437263
H            7.52706463816385        8.73142232539839       -2.85707137423837
H            7.31439221976180        9.13341491508463       -5.66738224369042
H            6.40535048103257        7.77853977752560       -5.00377762535583
H            7.48440908615364        7.52603973229498       -6.37588122539577
