54
 energy: -11.484647531299 gnorm: 0.000620066366 xtb: 6.5.0 (97a52f5)
C            1.14539443573144        0.06409050059646        0.31740772337667
C            0.33798842560820        1.02213547799145       -0.17079173993271
C           -1.11461135788867        1.00481136590977       -0.12568870148478
C           -1.83997779508653       -0.00994477664938        0.54862413922661
C           -3.19973652298353       -0.00544561192751        0.58016883845176
C           -3.93770853155978        1.01662468183879       -0.06198885825358
C           -5.34883377136539        1.05053472715470       -0.04754740652833
C           -6.02622233747365        2.05316693573566       -0.67740993337201
C           -5.33110790493229        3.06643879988317       -1.34937362104638
C           -3.96861988879294        3.06455669752932       -1.38294341660297
C           -3.23338053412316        2.04061800171791       -0.74022340296641
C           -1.82438781430696        2.00855552816528       -0.75341554199909
C            2.59625777762157        0.07986873678918        0.27419604418142
C            3.31122981051269       -1.00513093142132        0.79262132041351
C            4.68331858216422       -1.02709653755290        0.76890995753214
C            5.40809922858582        0.03472033454710        0.22757772670353
N            6.83740125551467        0.00832901531411        0.19939039479275
C            7.53978464683858       -1.24135589537148        0.09493949754474
C            8.70785249412748       -1.46110314309957        0.82141239538543
C            9.38892517919672       -2.65285471729819        0.71379049534638
C            8.91803867415033       -3.64667456269302       -0.12245004514893
C            7.76243488636619       -3.44333836481096       -0.85173939188562
C            7.07925212781480       -2.25257941274934       -0.74534157177935
C            7.59228038432178        1.22925266382079        0.27090274722047
C            8.74317700438386        1.39639558396065       -0.49599060485565
C            9.47344517599518        2.56138841126150       -0.42372980403454
C            9.06976420443780        3.58060756687396        0.41697214792729
C            7.93254873093649        3.42913252366959        1.18680112242850
C            7.20047146298739        2.26496724795250        1.11614879156703
C            4.69925260151968        1.11991891279943       -0.28816042039891
C            3.32651422619591        1.14396376782269       -0.26676496212070
H            0.69838514407740       -0.79934689569189        0.77384974176800
H            0.78409927365881        1.87673561812246       -0.64437192221263
H           -1.30522549365075       -0.79625027393530        1.05026362066080
H           -3.73394189548732       -0.78355067391904        1.09783853453235
H           -5.88407755890310        0.27204848260673        0.46844487594816
H           -7.10377047132919        2.06875079966790       -0.65932923020151
H           -5.88047207478451        3.85202192188382       -1.84214096983832
H           -3.43511783231249        3.84357890127333       -1.89986391214578
H           -1.29274549901144        2.78763576754937       -1.26954717204362
H            2.76869478272151       -1.83324583800132        1.21582489583121
H            5.21905461553328       -1.86424005842044        1.18073107451345
H            9.06723636508510       -0.68454614820968        1.47387152216135
H           10.29096455172357       -2.80998890416923        1.28245735357327
H            9.45232435686983       -4.57895254224195       -0.20662876269786
H            7.39617558730617       -4.21704354010450       -1.50677575474437
H            6.18525074321337       -2.08395188767799       -1.31996541259302
H            9.04970361605024        0.60051728416947       -1.15207681602640
H           10.36110061521986        2.67791334611000       -1.02400791392472
H            9.64224764336508        4.49212330922024        0.47318721261635
H            7.61917244748070        4.22254810467015        1.84566065812771
H            6.32104966569459        2.13650317306090        1.72282000468292
H            5.24823180262170        1.93933978247852       -0.71813292646481
H            2.80892475835826        1.99441674379484       -0.67257262121160
