79
 energy: -15.378050610055 gnorm: 0.000596965025 xtb: 6.5.0 (97a52f5)
C            2.39024713215426        0.96732886728159       -0.75283482221485
C            3.60037388061777        0.38236483477390       -0.04121853376153
C            4.02609255796580        1.20544911439359        1.17561631934320
C            5.23260235997184        0.61679445739570        1.90707052691432
C            5.63840869774276        1.43099123397243        3.13513022847018
C            6.81600783735080        0.82384131632235        3.89905573399240
C            7.17121389444974        1.60309284377144        5.13105402074478
C            6.37305267647202        1.51782603919379        6.26550996887152
C            6.66439624810303        2.25960632392562        7.38895643610451
C            7.77117957057370        3.10192194307292        7.41182507014465
N            8.06058730720979        3.89285044186270        8.58086051409791
C            7.99923569269701        5.25913675829797        8.67072648861365
N            8.10150866099944        5.75858370930164        9.91749428009685
C            8.24871554730663        4.61657866358153       10.68304046753887
C            8.38600692674706        4.56531528737545       12.10569884474505
C            8.38351312830759        5.73934204108833       12.86644913208450
C            8.50701680910201        5.68406328121461       14.23343189277143
C            8.63445215743024        4.45400440169244       14.86758290283586
C            8.64157842611638        3.28492065881522       14.13898654805373
C            8.51984544534669        3.29603838647266       12.73788313385303
C            8.53632082548960        2.08543995690056       11.93158494252111
C            8.69367284407825        0.80894879891070       12.49974055523002
C            8.73207713758367       -0.32387220491368       11.71904851411559
C            8.62054207017676       -0.23178282573741       10.33804133781892
C            8.46148533994335        0.99622024820836        9.74272645252084
C            8.40463502515334        2.16638010167821       10.51011468966854
C            8.23962257077677        3.45639086495060        9.91183567759350
B            7.90783302049300        7.00776754132553        8.71601173964620
C            8.84412902072256        7.31909814032560        7.38413772323775
C            6.35098282935909        7.34675351049670        8.35866930229410
C            8.42254274918664        8.12461463391595        9.83322903904196
C            9.75549268578822        8.14023501258793       10.18166847070501
C           10.19557425586200        8.92097813472203       11.24808879624434
C            9.29378214173097        9.70208898618304       12.00379938139839
C            9.69518639831418       10.48845964644171       13.09878789275365
C            8.77026754012785       11.22302040610081       13.80942298941158
C            7.42887616175268       11.19912024629533       13.45630151096363
C            6.99699074067338       10.43787827884078       12.38606765975707
C            7.90749888735669        9.68021176919606       11.64222861645798
C            7.55673777744557        8.88017313106539       10.56366837619866
C            8.56489511110270        3.19878090106063        6.27391174714130
C            8.26643902429316        2.46026225032191        5.14875979687726
H            2.09526701395834        0.37117895931783       -1.61935923915770
H            2.59093409982022        1.98099944321951       -1.10447245405172
H            1.52874265902177        1.02365313524991       -0.08478584026919
H            4.44577002112540        0.29987842002611       -0.73712022312678
H            3.39107238525228       -0.64847041239483        0.27408634610730
H            3.18272814022172        1.29422190734173        1.87133990490764
H            4.24829865931134        2.23394367755930        0.86611168038420
H            6.08221130342473        0.53801442330073        1.21802897792145
H            5.01228391775137       -0.41484456323358        2.20730552908911
H            4.77886648097619        1.53001798902839        3.80903529140324
H            5.88381331557218        2.45744289870021        2.83686895343070
H            7.69009319463389        0.75246365538568        3.24183841805916
H            6.58251470371783       -0.20899768804223        4.18241361918892
H            5.51514385624636        0.86731175667185        6.25531901095634
H            6.04001128297615        2.19884629380773        8.26336911967684
H            8.28783790709741        6.68385563079774       12.35911743090186
H            8.50470812633134        6.59278375237969       14.81280372133797
H            8.72961619205355        4.41649037183140       15.94051402881465
H            8.74194583648242        2.34954726580664       14.65817649584734
H            8.79061123342606        0.70862467195156       13.56517700659784
H            8.85432957756683       -1.29011215151260       12.18091061357620
H            8.65834832302246       -1.12362276246654        9.73416725411953
H            8.38621308213911        1.06897438354398        8.67363765646165
H            8.42734449943086        6.81068124294286        6.51980709181792
H            9.85969871846132        6.96703415762949        7.53523696518484
H            8.86451946669716        8.38685292774898        7.18716532453844
H            6.00295929871129        6.71901715503475        7.54354654220371
H            6.24615087804558        8.38969990755255        8.07474383879737
H            5.74256404919086        7.15451359966723        9.23721693212833
H           10.44796705020540        7.51273247375120        9.64945271393375
H           11.23646864514472        8.92142629551770       11.51945807764898
H           10.73455795906473       10.50691818477977       13.37708494575361
H            9.09124432324101       11.82009080686356       14.64720018024402
H            6.71686440339535       11.77772571174258       14.02174082496754
H            5.95632461583692       10.41606208091350       12.11412573717875
H            9.41251154800399        3.86152722799460        6.28688965585448
H            8.88086411804004        2.54583903682384        4.26884350264349
