122
 energy: -23.489088146420 gnorm: 0.000577116664 xtb: 6.5.0 (97a52f5)
C            1.65140869087199        0.38536542488973       -0.37637054310224
C            3.10000656887091        0.00021649351098       -0.11898842053675
C            3.49949780451784       -1.30057342513530       -0.81710453179687
C            4.94875445575402       -1.70519549166177       -0.54767551897244
C            5.34470236712635       -3.00028983363369       -1.25483652506387
C            6.78534550589182       -3.42369336644924       -0.97349446732425
C            7.16329709398871       -4.71365160386151       -1.64169154387103
C            6.75996188026151       -5.92671683554128       -1.10210133916163
C            7.13159921478006       -7.11594665904092       -1.68778909836462
C            7.91817657223416       -7.12199485728332       -2.83242532063249
N            8.44168708541649       -8.36600041263014       -3.34282614716503
C            9.62915274356257       -9.01982521830233       -2.98263671511095
C            9.67039985556992      -10.27953166536619       -3.59953065430238
C            8.45951322290322      -10.41355516651028       -4.32585230040978
C            7.72198027861735       -9.24604048346948       -4.17839672670034
C            6.48225867925845       -9.40680467301178       -4.84770080247917
C            6.47310455102660      -10.70858102016520       -5.36946333835288
N            7.69060533276413      -11.33426052268692       -5.06931588466298
C            8.12533807852259      -12.66810382758397       -5.40098509702668
C            8.04498565452602      -13.68863489076408       -4.46405679669797
C            8.38739976350953      -14.97726743616561       -4.80670682340968
C            8.82439599239327      -15.28571503472805       -6.08851337925628
C            9.17649968379728      -16.71093966436002       -6.42097781377348
C           10.03675746668065      -16.90033272545853       -7.67391544795012
C           10.50220733674857      -18.34362809098279       -7.86438552329908
C           11.37597494820406      -18.52897085165611       -9.10493243941639
C           11.85064501700709      -19.97058303395476       -9.29398124428070
C           12.71960182339246      -20.14724570964504      -10.52957905933301
C            8.89943548513990      -14.26045408105812       -7.02285813808411
C            8.56312610621074      -12.96895815063420       -6.68366263650240
C            5.34363928322903      -11.26011367647103       -6.07753784834267
C            5.30594991641191      -12.58574746276777       -6.52837977889969
C            4.21409355081289      -13.08207630936426       -7.19608263302215
C            3.11927897194446      -12.27610066141723       -7.44957668531769
C            3.09882296394828      -10.95281336720099       -7.02880858884650
O            2.00000768291050      -10.10333354976122       -7.30928417932460
C            2.21234035078749       -9.27381121950575       -8.43934489317829
C            4.21970070482033      -10.44453072583367       -6.31354101613313
N            4.18771129725300       -9.15799360197708       -5.84786516945791
B            5.26075410829994       -8.54744351340618       -5.11394227752590
C            5.23980145758833       -6.99751044593828       -4.92433987151675
C            4.37659200183720       -6.42311562309270       -4.01297730542412
C            4.26867282478689       -5.05104542172828       -3.94080410914238
C            5.02619593730388       -4.25371782643279       -4.77838587964941
C            5.89320320654538       -4.83052510301720       -5.68691841974351
C            5.99681689842075       -6.20285078533975       -5.76233458330540
B           10.90012033832037      -11.13092475170913       -3.33893746716388
C           11.26131584842830      -12.42754976735490       -4.13207992028141
C           11.33909811377817      -13.62934301611145       -3.45647301192382
C           11.77988694517169      -14.75932724351264       -4.11136266199555
C           12.14885749210547      -14.68567268470281       -5.44104461090104
C           12.06887405970207      -13.48265909933355       -6.11694427722806
C           11.62703349005007      -12.35306055216600       -5.46158774724571
N           11.87875914289023      -10.59843952918354       -2.43481344794461
C           11.76327341607272       -9.38317826318427       -1.81573648746935
C           12.78508238183981       -8.95598779903005       -0.92049405908050
O           13.85869498359231       -9.82223769926978       -0.60398857783797
C           13.48066095529487      -10.90293375546057        0.23369976834324
C           12.69495229019485       -7.68867663534920       -0.36016446202945
C           11.61774526117840       -6.86759238767117       -0.63772938556045
C           10.61776446346430       -7.29025576009872       -1.47742194410166
C           10.66120296783980       -8.54941521785933       -2.08962072079627
C            8.28773700046313       -5.90831707954273       -3.39903486343087
C            7.91429695299096       -4.72085348774684       -2.80933356926064
H            1.37892041083750        1.31675868059816        0.12493205882087
H            0.96868025904929       -0.38953035845778       -0.02305210008164
H            1.46207786740565        0.51875325040847       -1.44301022179441
H            3.27869313751659       -0.09802137684395        0.95996516985198
H            3.76970189539917        0.80701975709000       -0.44505241817107
H            3.33913002962883       -1.20309287287734       -1.89772981628045
H            2.82801972244850       -2.10850165791156       -0.50188520124754
H            5.10680227930332       -1.81197933552836        0.53236058529944
H            5.62191354867294       -0.89615604321567       -0.85610288997492
H            5.20329340714791       -2.88632063236351       -2.33530134132114
H            4.66188505024951       -3.80582286156209       -0.95921180006891
H            6.93783810974710       -3.52215033136508        0.10757074586621
H            7.47369891553140       -2.63154032098610       -1.28962103745267
H            6.16343490763305       -5.92944492129828       -0.20578342571160
H            6.84459375184861       -8.05663961303061       -1.25114836951870
H            7.70221555673465      -13.45616794845752       -3.47090506182905
H            8.31914583209148      -15.76387405079923       -4.07454432729522
H            8.25211809792677      -17.29177869280491       -6.51832551720160
H            9.70112575954688      -17.14653659432752       -5.56246360473012
H           10.90944235797548      -16.23905331659773       -7.62351480783765
H            9.48024427924821      -16.57762926812946       -8.56171482681925
H            9.63116329614358      -19.00750194409118       -7.92281505537933
H           11.05265747373181      -18.67318819370593       -6.97479704751047
H           12.24374403657336      -17.86066657726359       -9.04667123501114
H           10.82513261018221      -18.20257383485022       -9.99543363482032
H           10.97826371925692      -20.63528590645037       -9.34719558510757
H           12.39786208721933      -20.29219450571893       -8.39791810731925
H           12.17950329198717      -19.86561935574578      -11.43534846251899
H           13.05223227618429      -21.18026038932842      -10.65316801495366
H           13.61088622347490      -19.51922712271886      -10.47824526206657
H            9.22851627438063      -14.47434430105096       -8.02435001745139
H            8.62118414585288      -12.17762277516135       -7.41053206145720
H            6.14403025351243      -13.22767982610355       -6.33888037688049
H            4.21103183091139      -14.10669831327649       -7.53065504956998
H            2.26801863948601      -12.65952387461442       -7.98338493422455
H            2.29681033438817       -9.89171335498283       -9.33416121393413
H            3.12788553262427       -8.69461758082034       -8.31476918487385
H            1.36673269303883       -8.59402037590972       -8.54991516916132
H            3.34634612450886       -8.62946481758570       -6.03468281734614
H            3.78569184176187       -7.05807617462006       -3.37562340299998
H            3.58581442676658       -4.60216335451334       -3.23826143613491
H            4.93758387260742       -3.18082883241760       -4.72803688783675
H            6.48441304568515       -4.20850607108210       -6.33899240758366
H            6.65537358029204       -6.66932548586590       -6.47462963672499
H           11.06223426252071      -13.66617658335107       -2.41696780801434
H           11.83931247230196      -15.69850365408799       -3.58596906468267
H           12.50305960461204      -15.56720345799279       -5.94967291682662
H           12.35258071236322      -13.42713698997325       -7.15523226884681
H           11.57051499328531      -11.40586912126093       -5.96976173101589
H           12.74240872640192      -11.10350973800251       -2.29096494476908
H           13.37373417130750      -10.54495264319287        1.25840118921140
H           14.25354806211701      -11.67169043047125        0.20059539072392
H           12.53261899783820      -11.32973001252618       -0.09520980359935
H           13.47320198522180       -7.36499339753867        0.30779055914851
H           11.56110287989345       -5.89074971496030       -0.18563419814702
H            9.78668513310184       -6.64149786859212       -1.67168679403466
H            8.89286960125799       -5.91287892667557       -4.28884959295400
H            8.21343909154269       -3.78401914915176       -3.24741784602728
