128
 energy: -24.777376016789 gnorm: 0.000941010056 xtb: 6.5.0 (97a52f5)
C            3.12868451561918       -1.40557490158359       -2.39994761711219
C            4.52629541578855       -1.20828654331979       -1.83387909743764
C            4.65053559400511        0.06286950285575       -0.99269142469259
C            6.05576777715043        0.27417842237227       -0.42909507483030
C            6.17331937768995        1.53950714450837        0.41946661920426
C            7.57986106111136        1.76000389877985        0.97599227208236
C            7.68469282859188        2.99773402930749        1.81592877580305
C            7.62026376338788        2.92684941979878        3.20073064746594
C            7.71533097773434        4.06592151207429        3.96789237151492
C            7.87454104736917        5.30786685073823        3.36712936792266
N            7.96114500267427        6.50112887951004        4.16847877174377
C            6.95060332386878        7.45827447087623        4.37283430566271
C            5.63198973942193        7.56041071773018        3.84272602193020
C            5.11706601254515        6.63953107870757        2.92132658978158
C            3.83770154695643        6.75210286379536        2.45568908738885
C            3.02891536495505        7.78124591139048        2.90070887172319
C            3.47243579583052        8.71791964541621        3.82590386326416
O            2.53823314750617        9.69579847686466        4.18555316036542
C            2.93575001046925       10.59075957877132        5.19420772578565
C            4.81537536687316        8.61336795857251        4.32279548957844
N            5.26825912300692        9.54034316304231        5.21816265081113
C            6.49865131395712        9.45728253237917        5.70143871392950
C            6.97098148543957       10.58614672531990        6.51948313244294
C            8.24252274456641       11.13611383443402        6.34884807221223
C            8.61955316410720       12.25990194222127        7.03992764080317
C            7.74600635217682       12.89357973697860        7.93086565503654
O            8.19912729557734       14.04333528825309        8.58818095240878
C            7.22487108794821       14.69318748026489        9.37449007807411
C            6.47323405144683       12.33824707075928        8.09966321534210
C            6.09614494189056       11.21821032004933        7.40326009482960
C            7.35713264312248        8.36959305342498        5.34897009854737
C            8.61598031027804        7.89578953435834        5.85542062506609
C            8.99502386453817        6.79212966932349        5.09245117170181
C           10.13143613612742        6.18100836799479        5.72175771908165
C           10.95396221632369        5.06070773279659        5.38934212115968
C           10.95736190025183        4.49253770405174        4.03068352862636
C           11.06232649969215        3.11469190067118        3.84287026458614
C           11.13156616971445        2.57989343068598        2.58216162912677
C           11.11884904451676        3.39672350722124        1.44633916374914
O           11.17453280168892        2.77014565559968        0.19619354278196
C           11.15094394828433        3.65068240920909       -0.90471401681311
C           11.04569246839066        4.78099888114981        1.63982587061790
C           10.96235027487085        5.31375342214896        2.90178184365208
N           11.81990126423294        4.56553896961632        6.25978986858100
C           11.97873974684936        5.15863421577243        7.48041861850875
C           12.90651533254902        4.59084428462609        8.41751091799019
O           13.69688322755848        3.45575888993505        8.20549997843044
C           13.54148628805265        2.81506371679046        6.96387064052953
C           13.05797953742085        5.19880763148951        9.65749864870663
C           12.34150609643829        6.32644789126960       10.01302534360814
C           11.46061071497345        6.88212281999075        9.12893268599831
C           11.27270214209695        6.32873305949654        7.85588313523218
C           10.33618138988420        6.85947158235281        6.92195853890084
N            9.44782692640306        7.94761182130345        7.00389553783624
C            9.35498308582748        8.88976558351218        8.08770844377012
C            8.25457440714287        8.90065222176559        8.93397072110116
C            8.20385269773383        9.77217887613717        9.99886992415341
C            9.24690030189781       10.65467266380884       10.25152057366947
C            9.17934851405341       11.57993703652406       11.43517633166495
C            9.85130329275593       12.93900034574434       11.21820505755767
C            9.60229143156187       13.92191891316820       12.36108766206500
C           10.26751919901383       15.27896921039340       12.13080053051323
C            9.99921859496640       16.27724748354788       13.25763827592266
C           10.65394091050479       17.62865089214108       13.01536955594871
C           10.35090719261451       10.62933322338198        9.41004119667466
C           10.40076198513442        9.76953167295661        8.33700627910629
C            7.92588727865001        5.38182305756052        1.98042933947901
C            7.82418147817126        4.24130992338560        1.21703397886685
H            3.05254977694282       -2.31718080547621       -2.99640267582520
H            2.84071085947382       -0.56948325576067       -3.03943311330434
H            2.38599714774061       -1.47162728099594       -1.60310103081802
H            5.26252071744500       -1.17764915639995       -2.64769387285389
H            4.81296542607543       -2.07528403909538       -1.22443627534564
H            3.92511513449201        0.03254374076272       -0.17081765516454
H            4.36155187475092        0.93244946217008       -1.59515525218728
H            6.78058910464589        0.31361776008059       -1.25108461984647
H            6.34883650794059       -0.59775727907487        0.16788467140960
H            5.45525735901636        1.49848039950596        1.24723667178761
H            5.87316544660918        2.41145711757431       -0.17386315694423
H            8.30318224929195        1.81971449276833        0.15465877965621
H            7.88763196071424        0.88986422095042        1.56670258795868
H            7.50204185118145        1.96671681514995        3.67307835404059
H            7.67327721837960        4.01037868936955        5.04156967150111
H            5.73485998424275        5.82927222617245        2.58712809366074
H            3.45667271238718        6.03832306459476        1.74354244817207
H            2.02154628547948        7.87172447675559        2.53472275182997
H            2.11155265445049       11.26957904788476        5.41719771753506
H            3.79479316694596       11.16914917282769        4.85202984359932
H            3.19517713460464       10.03289035091297        6.09465564202318
H            8.92246105232013       10.67199727606307        5.65567458937069
H            9.60071870195506       12.67950084584702        6.90585271177495
H            7.66063528960944       15.59766990621970        9.80060723134904
H            6.90328723634306       14.04227999955680       10.18835046942317
H            6.37268617309576       14.97358235063113        8.75412333990121
H            5.77680036846839       12.79584656291802        8.77815891900357
H            5.10776928813060       10.81113197140922        7.52676596674247
H           11.07987418041569        2.47444682359281        4.70748510382660
H           11.19470665576128        1.51528364101132        2.44304069860626
H           11.18109510598192        3.06399234267884       -1.82378783089915
H           12.02231933895417        4.30640695698772       -0.87701943189241
H           10.23289607839247        4.23943385572959       -0.89429820030336
H           11.04259246259492        5.43883771128353        0.79007340966892
H           10.90367639217756        6.37997884304242        3.03678198009863
H           14.20347801911978        1.94911978810449        6.92187054328818
H           13.80123949034174        3.50562383395710        6.16058291046591
H           12.50874711712373        2.48318083494692        6.85171730826859
H           13.75456527245020        4.76196786000723       10.35092431190153
H           12.47581559290135        6.76401703621342       10.98884218505100
H           10.89203309765411        7.74451346095895        9.41826613410259
H            7.44579319538913        8.21744367716163        8.74231737446032
H            7.34587639068528        9.77440046541300       10.64924708305233
H            9.62005264269111       11.08161209818436       12.30603003585908
H            8.12694062293881       11.74184821366635       11.69532835612928
H            9.49570809687487       13.37265221514889       10.27668122059748
H           10.93104511561677       12.80795186220330       11.08353334308839
H            9.95892219179289       13.49006837329862       13.30405098489056
H            8.52319159986074       14.05962848786292       12.49999245491175
H            9.92439378716719       15.69924121171997       11.17769780130672
H           11.34890889496670       15.14311483398090       12.00812371292982
H           10.34816905826137       15.85278604837480       14.20845823051419
H            8.91504123176104       16.39987395717922       13.38185127645488
H           11.73755617863610       17.53174452642660       12.92630994813331
H           10.45207807855087       18.33300823356721       13.82513880649163
H           10.29395486573277       18.08138655671034       12.08960292175941
H           11.17798883306178       11.29120376658987        9.59674639703069
H           11.25539666949167        9.75704354294782        7.68311832231733
H            8.05141421461700        6.34399137946532        1.51520416782337
H            7.86359629961852        4.30468116075652        0.14312935105912
