126
 energy: -23.506955556174 gnorm: 0.000898302466 xtb: 6.5.0 (97a52f5)
C            1.05212559042934        0.51421069023787       -0.03891807636282
C            2.56293602585433        0.34430748189925       -0.07443479905108
C            2.99576606903102       -1.12274598200232       -0.05594877193713
C            4.51384919892853       -1.29785109877729       -0.09247603716815
C            4.95045569488383       -2.76316662650173       -0.07344207308372
C            6.47224021104385       -2.92643127917130       -0.11158239963093
C            6.98592406035439       -4.34199937128379       -0.08608420196409
C            6.13952535167417       -5.46174345311569       -0.05999972728996
C            6.64100506882822       -6.73178522839426       -0.03844349045502
C            8.03178615468046       -6.97877089866213       -0.04162454978359
C            8.59690154861187       -8.30205591151040       -0.01960114498785
C            7.74008013112845       -9.45784218392532       -0.00167164149706
N            8.11697376747212      -10.68375269327440        0.03472770589892
C            7.23511025115487      -11.76825552157033        0.00574089194356
C            7.55768294887822      -12.94293866430558        0.67479989377082
C            6.71999136617571      -14.05120522946698        0.63703099972803
N            7.07791111767572      -15.23195312231441        1.29707617290888
C            6.96412444520446      -16.38271651403077        0.74219209857076
C            7.27855837416215      -17.65730844978615        1.32962770434016
C            7.68373757082278      -17.76107870274094        2.67993138021952
O            7.81559089940081      -16.65892160929870        3.48575350124650
C            7.96311417059784      -19.02993978237992        3.23583205161755
C            7.85784900576754      -20.16401240195004        2.50155015024564
C            7.46681682558674      -20.11195673988419        1.14286039189677
C            7.36804224963976      -21.28960076334699        0.37517742402228
C            7.00092338551170      -21.26544950593093       -0.94500673522188
C            6.91683084545980      -22.56279600460500       -1.70569309324528
C            6.51047058581859      -22.44619514276341       -3.17738020552097
C            6.44372942097775      -23.79860863628279       -3.88731865648772
C            6.03984376946291      -23.68053646062196       -5.35717330824718
C            5.96836788657859      -25.03149627600230       -6.07073940984777
C            5.56649631924144      -24.90506472464832       -7.53210476022404
C            6.71853500654590      -20.02152340835131       -1.53160379693185
C            6.80266419347412      -18.86222199287990       -0.81581084558749
C            7.17667165929574      -18.85950677412071        0.54613289106852
C            5.53304202122799      -13.96447683896488       -0.08083505809313
C            5.18660540673431      -12.80819104765121       -0.76754381284277
N            3.99514150772827      -12.75741384944830       -1.49737816678121
C            3.90728681452056      -12.18541683476626       -2.64195640441973
C            2.72790383906910      -12.07478221006366       -3.45755838094703
C            1.48557019344788      -12.59009174028919       -3.02190159938822
O            1.34287873318367      -13.21743513985724       -1.81052484335918
C            0.34340861120401      -12.46507183498911       -3.84452020537609
C            0.40558993715723      -11.86043486539632       -5.05556091678138
C            1.62572619638397      -11.33127679150235       -5.53777617222945
C            1.69169911740911      -10.70640422439364       -6.79900688249215
C            2.86129302046366      -10.18860619108342       -7.29092362127756
C            2.85731270289751       -9.52219541425799       -8.64143862206698
C            4.23275821461180       -9.15466108372567       -9.20474906887104
C            4.15929264864798       -8.53840361075900      -10.60186978300689
C            5.53162920735554       -8.15950485391481      -11.15882446258691
C            5.46223941652290       -7.53939181612850      -12.55528403637886
C            6.83081084914966       -7.16056870246251      -13.09994341102144
C            4.01440995864237      -10.28500109825832       -6.49609980971244
C            3.98520398097059      -10.88485728262670       -5.27024454586644
C            2.79497060724746      -11.43253530824984       -4.74299473794787
C            6.04745438906270      -11.71873273147052       -0.71411566670775
C           10.00475840765872       -8.43629959981567       -0.02315790347350
O           10.62013042416415       -9.66190084604568       -0.00235888123124
C           10.82355294037217       -7.28509202207734       -0.05024327431112
C           10.29223695485167       -6.03917635417626       -0.07277668736448
C            8.89043620228647       -5.85119174037437       -0.06858405932171
C            8.33939158437751       -4.55487904150088       -0.09072498435586
H            0.75733364199247        1.56577310398533       -0.05221299618989
H            0.62557266751728        0.06495313425850        0.85960057447932
H            0.58039320161327        0.02992318723286       -0.89571609935545
H            3.02177843798658        0.86813234898510        0.77451527932147
H            2.97688663609903        0.83290518404100       -0.96636705210665
H            2.54351361621210       -1.65079955779634       -0.90408636765936
H            2.58946444423855       -1.61522095237758        0.83572348487324
H            4.96545554436703       -0.76865780917585        0.75528408069956
H            4.91939978266081       -0.80504868841538       -0.98428692100696
H            4.49985309683768       -3.28904938080527       -0.92357165686270
H            4.54795636772732       -3.25241253906669        0.82154069819435
H            6.91153236517433       -2.38263933393624        0.73279651847333
H            6.86385620529003       -2.43058293658771       -1.00731784999088
H            5.07366244995036       -5.31619342441186       -0.05642254739382
H            5.95070109831093       -7.55442929818492       -0.01748907649730
H            6.68035103737451       -9.29251539715480       -0.00221830059589
H            8.47707898892843      -12.99844749194543        1.22558314960854
H            6.61140653976041      -16.37339921888227       -0.27137675369529
H            7.58859822904073      -15.89707728528724        2.91758830570625
H            8.26291309457026      -19.07224612252795        4.26788593591394
H            8.07455694891721      -21.12047487241072        2.94526153427575
H            7.58943362046673      -22.23348631530033        0.84072749322126
H            6.21160760525458      -23.22428252183439       -1.18936244172322
H            7.88691793449049      -23.06889121746608       -1.63974515488748
H            7.21631643135784      -21.79322842149110       -3.70463554743029
H            5.53670751208537      -21.94766569868502       -3.25322979830670
H            5.73906109205537      -24.45540336456934       -3.36315162930952
H            7.41447716688862      -24.30313665883368       -3.81128989760151
H            6.74575311159259      -23.02485066519766       -5.88117733722491
H            5.07059005717791      -23.17299719569587       -5.43277181783245
H            5.26302840124455      -25.68472810270576       -5.54028160207101
H            6.93983248061055      -25.53660330638362       -5.98873028807873
H            4.58621791229386      -24.43595757372995       -7.63268894612571
H            5.51894989494378      -25.87592998932011       -8.03003591656964
H            6.27669402907406      -24.28740693336064       -8.08459839989191
H            6.43229409154045      -19.97963798538935       -2.56773384747999
H            6.58433571941739      -17.93629694072786       -1.31455188724012
H            4.87225872166414      -14.80949325501427       -0.11439310187752
H            4.82154390970159      -11.77917813881380       -3.02961197508370
H            2.23418432996851      -13.20438611706043       -1.41014150614482
H           -0.58536007014577      -12.86699693354676       -3.48032205614265
H           -0.47623361027625      -11.77727589074457       -5.66719551652221
H            0.79640690173342      -10.63427212780212       -7.39046923005458
H            2.23595000740213       -8.62106879411434       -8.58553336249995
H            2.34537017731717      -10.18111741502678       -9.35234698399650
H            4.87006892754101      -10.04671025715782       -9.23154448649147
H            4.73609991838285       -8.45500329449923       -8.52700368639811
H            3.51344225704544       -7.65238421525369      -10.57991923360952
H            3.66310100267796       -9.23617568920219      -11.28707373595683
H            6.17721201310319       -9.04577235383867      -11.18130962666206
H            6.02792257879139       -7.46355797177009      -10.47172628475837
H            4.80937182697856       -6.65700477100603      -12.52788547352312
H            4.96435114769347       -8.23984351365443      -13.23871835120087
H            7.32709271036357       -6.43698872746930      -12.45089245050050
H            6.76793284809597       -6.71914038708949      -14.09695936213987
H            7.48368473508592       -8.03249438255150      -13.16789749976088
H            4.94148835103748       -9.87969274911146       -6.86131192725496
H            4.89607296074487      -10.93427361675946       -4.70323840217224
H            5.79119886945297      -10.82416982556094       -1.24764840656984
H            9.89203175074486      -10.31313156907543        0.01438544244436
H           11.88983629459353       -7.42578856305049       -0.05362800406758
H           10.93381829345182       -5.17515800194587       -0.09424390313529
H            9.00296663397129       -3.70875514175381       -0.11202733223323
