88
 energy: -16.464072782595 gnorm: 0.000777077599 xtb: 6.5.0 (97a52f5)
C            1.11558139738325       -0.56975648750586        0.08336085753208
C            2.60172506966489       -0.25588584943133        0.00759687513388
C            3.02579641147578        0.84641573871735        0.97985094450953
C            4.51658468912233        1.17543440918907        0.89852451750168
C            4.93926771228577        2.28298120020924        1.86353338952091
C            6.42470094836446        2.63161456264600        1.76048576809255
C            6.83230611964310        3.73665527466827        2.69009322973849
C            7.44277540272441        3.45271177234570        3.92022849647669
C            7.79698360281913        4.45128394659810        4.78130008842125
C            7.55875447816666        5.80949195997547        4.47392409179323
C            7.91903404015427        6.88872159668842        5.35590433954545
C            8.60685811929193        6.61911435729191        6.58822527394762
N            8.88770060777804        7.47539975567246        7.50536556168158
C            9.60542798862930        7.17073841844846        8.66174576335318
C            9.28861996325789        7.80131131974154        9.86492308617768
C           10.00079748363923        7.53736677422727       11.00818145662931
C           11.07223263312739        6.64441388622666       10.99425574029126
N           11.79874790439851        6.40862464416641       12.16154834747409
C           13.07257918010949        6.23548689004750       12.17841102509598
C           13.88680392141331        5.98443634196090       13.33483719039489
C           13.30707387282980        5.80755221889919       14.61341814006725
O           11.95233641669437        5.87250333823603       14.81384350903747
C           14.13244424932276        5.55325674166293       15.73190671145863
C           15.48038377656303        5.47901991595522       15.61551706319925
C           16.10890183349334        5.65579589640686       14.36055439216842
C           17.51091547281356        5.58637992415312       14.24232085287392
C           18.14683654956465        5.76163733509105       13.04105593465167
C           19.64814400613785        5.65808903509123       12.98633366150502
C           20.29832705717569        6.08707588063843       11.66826430551856
C           21.82521593680289        6.01596981703562       11.70879851891746
C           22.47822718815880        6.42405614713521       10.38817124985134
C           24.00569303527718        6.35133759552696       10.42679448664915
C           24.64859294584453        6.74914958636465        9.10720877207586
C           17.35971355090070        6.00752412134904       11.90508796875592
C           15.99847256263038        6.08050659082535       11.98504981698264
C           15.31904792539527        5.90819993110747       13.21097157340110
C           11.38747892841304        6.01016398818469        9.79168587121830
C           10.66931092878762        6.26763120748121        8.64985138660103
C            7.59724350122170        8.21244754851548        4.97238279037685
O            7.89132367022051        9.29244126386512        5.76400407211457
C            6.95712263771425        8.45252472565690        3.73564919053198
C            6.63432797019997        7.43880431161964        2.89668519517228
C            6.92171387983448        6.09690115247147        3.23981946936092
C            6.57475349002705        5.04327647558623        2.37149614081571
H            0.82669481553490       -1.35850061735226       -0.61472683281114
H            0.51427983234177        0.31092112267755       -0.14899806900373
H            0.83234612483678       -0.89790254696561        1.08490212490977
H            2.87326586968492        0.03915614662992       -1.01449251178841
H            3.18990759850022       -1.16122782243707        0.20737837681010
H            2.76840883644865        0.55304132382276        2.00466608451311
H            2.43860410928017        1.75236564650288        0.78696111670968
H            4.77285442432420        1.46552553763416       -0.12753080124542
H            5.10529033860231        0.27124345142116        1.09454498966548
H            4.70137610936510        1.98983790023925        2.89316298792426
H            4.33903235583148        3.18192036957168        1.67834246641227
H            6.66776066456562        2.91906030857491        0.73119958658186
H            7.03044261043504        1.74086097627546        1.96151014366415
H            7.62724033483368        2.42466882490161        4.18192753147582
H            8.25293198034941        4.18547876764916        5.71679706574698
H            8.91342266990831        5.60891743786331        6.78026479884684
H            8.47028274654646        8.49947288223915        9.88221463886513
H            9.75156776386599        8.03030153089113       11.93142763977866
H           13.56650036997523        6.32549319954048       11.23034071989109
H           11.57361700426791        6.06812162534423       13.93450832374526
H           13.65774198788743        5.41982071709827       16.68767728632325
H           16.09076795699526        5.28644415914888       16.48103623020476
H           18.09717530971448        5.38935397850979       15.12222279279155
H           19.93597844538619        4.62513760998190       13.21298248702180
H           20.06724295322959        6.25912227900964       13.80165127454733
H           19.98529474991468        7.10776923812970       11.41781307967578
H           19.92849849718443        5.45792359121834       10.85007841778104
H           22.13895058527732        4.99959430666888       11.97544404625921
H           22.20240643081737        6.65228334790261       12.51833179318297
H           22.16462842455574        7.44033034007589       10.12093674183992
H           22.10018421701480        5.78745057451537        9.57922059299672
H           24.31261178788882        5.33450634446087       10.70477943411151
H           24.37851241925720        6.99185234658971       11.23681682922973
H           24.31654053576043        6.09959948710798        8.29555386386561
H           25.73852677589930        6.69302505690310        9.14826949397921
H           24.38283398435176        7.77094109381702        8.83101718603148
H           17.83925093570324        6.14322754483701       10.95172897544322
H           15.44273800046969        6.27744510614176       11.08729663328656
H           12.19775531353656        5.30290539093161        9.77110908407017
H           10.93711474959668        5.78787019704674        7.72508773825363
H            8.31443007993228        8.91898379469220        6.56158247371420
H            6.73389366419483        9.47157805458642        3.47404408872757
H            6.14927309955469        7.64400430053476        1.95787081974020
H            6.09245347688903        5.27280981429489        1.43814113961829
