132
 energy: -25.719254692261 gnorm: 0.000388510601 xtb: 6.5.0 (97a52f5)
C            0.84019161787504       -0.74295858977076       -0.10055229202698
C            2.23856289053440       -0.22438067144200        0.19727629642316
C            2.78425666195366        0.67729913734067       -0.91119597768652
C            4.18808136257419        1.20667520311021       -0.61719848043672
C            4.72983008840058        2.10821697763769       -1.72604861139231
C            6.13428377628044        2.63901019307097       -1.43620882214202
C            6.64410277068655        3.55059116954775       -2.51349672937598
C            7.34384615066962        3.03322796367583       -3.61366020419134
C            7.77898572473980        3.84624115954782       -4.62059124286787
C            7.53735823598412        5.23640838290101       -4.59532417457990
C            7.97470907128060        6.12539446538128       -5.63632544284127
C            7.67313210236213        7.49237918502028       -5.54258626785159
C            6.96133923316667        7.98084885546000       -4.42448363701508
C            6.54889411156618        7.15125229052872       -3.43417737905866
C            6.82073207297036        5.76265058542639       -3.49117540144040
C            6.38602521623357        4.89551545102806       -2.46946187297387
O            8.05522263541904        8.37249635684287       -6.51062490832623
B            8.65867451527832        7.92295185086850       -7.80864985136881
C            9.97838555814575        8.80660564531889       -8.09792865454551
C           10.60195375311713        8.82437632788330       -9.32454072416108
C           11.76224577366338        9.54903572911594       -9.50435894776860
C           12.29923887929348       10.26072250006780       -8.45073942807820
C           11.67580139765561       10.24176025750232       -7.21920316623553
C           10.51759068892658        9.51060224819272       -7.04734070341138
C            7.52888006722829        8.11458387537256       -8.94166793386094
C            6.48815457745328        7.21736167850481       -8.88548164370007
C            5.46030203433678        7.28558939289463       -9.80334553912085
C            5.47214266077429        8.26697923449342      -10.77416166230560
C            6.50670178280007        9.18036969900463      -10.81782481787913
C            7.53200644772605        9.10514852452169       -9.89713545924417
N            9.06936512996679        6.43367688782143       -7.76838116573721
C            9.80023222939654        5.91492211950976       -8.89430877124255
C            9.14176096281660        5.57129589750259      -10.07086051063965
C            9.84728226956331        5.16706315511395      -11.17455202405003
C           11.23837554567849        5.10184873292632      -11.15815668592221
N           11.98274516931929        4.79532561040788      -12.34361111664778
C           13.15665761901116        4.20245374041503      -12.27139492075981
C           13.99642743472595        3.90012730829203      -13.37509425861275
C           13.58871831620993        4.29491613568453      -14.65565055874786
C           14.41883548642596        4.04314585125065      -15.77022859819373
C           15.61598868850878        3.42173074303945      -15.62938192628876
C           16.06975855394373        3.00205998990840      -14.35498729612461
C           17.31681134033499        2.36334427392425      -14.20420057038408
C           17.77064295165998        1.94812754777872      -12.97826840885782
C           19.10829070749986        1.28323470205198      -12.78420578452310
C           19.84290971149421        0.88215490252147      -14.06651690610307
C           21.16617878669339        0.16576016583493      -13.79636631873570
C           21.90613584826575       -0.22230296017256      -15.07673613416803
C           23.23217382660274       -0.93661811414162      -14.81064691891234
C           23.96378129747198       -1.31560797861549      -16.08900636838865
C           16.95944995234588        2.17831891212464      -11.85604807292760
C           15.74742366152737        2.79688017685307      -11.96582701486115
C           15.25970124111351        3.23341764702689      -13.21538819113870
O           12.39841157023332        4.92540634371212      -14.84682346973762
B           11.39440496042685        5.11164227558401      -13.74419680172614
C           10.19838510088325        4.06146300798483      -14.02632177908070
C            8.89735263750362        4.38983526684051      -14.33744560609800
C            7.96109278110996        3.39584948599559      -14.53616228612815
C            8.33056882515575        2.06987774306444      -14.42964500389091
C            9.63609370093974        1.74129165530549      -14.12424179820942
C           10.56604846787282        2.74070863395968      -13.92383439071964
C           10.90440730957124        6.65074503258743      -13.85135853149600
C           10.99806256008879        7.57784857468198      -12.83890164268815
C           10.56689689107255        8.87374625276960      -13.03549724996402
C           10.05411971045644        9.24978572759599      -14.25981334589213
C            9.98467847529508        8.32988419861392      -15.28618796111900
C           10.41611023077213        7.03516188097145      -15.07952248914257
C           11.89332332126596        5.42444638720920       -9.96854548394320
C           11.18819646544859        5.81228119165052       -8.85538534520583
C            8.71345852200277        5.66933377629573       -6.75931802258391
H            0.46282194986955       -1.38760191021793        0.69644986183731
H            0.82264230082021       -1.32091026229961       -1.02639962495867
H            0.13189430839573        0.07882344699502       -0.22116012220318
H            2.92826775448269       -1.06449938080311        0.35340360843463
H            2.24300341434334        0.32625531720965        1.14738213497242
H            2.09958596463727        1.51917197078558       -1.07105993786155
H            2.78883671401921        0.13027326610029       -1.86189766387371
H            4.87375416698797        0.36562344421002       -0.45801513664921
H            4.18362975419183        1.75441038436117        0.33305677148175
H            4.04585197456296        2.95101166581746       -1.88371667732912
H            4.73311668071742        1.56385391872886       -2.67823671997882
H            6.83009089374818        1.80222311649943       -1.30581504994227
H            6.14020947724185        3.17063929261133       -0.47765051935672
H            7.53074301043304        1.97358746768549       -3.65616920176541
H            8.30756742367181        3.41236384910527       -5.44946592016504
H            6.75050855023710        9.03466645022056       -4.38069782981315
H            6.00563792539412        7.54074831732525       -2.59040307379413
H            5.83448117486330        5.30052416971723       -1.63977826147238
H           10.18580651221038        8.24663452598765      -10.13074234865763
H           12.25578851267632        9.55080785305695      -10.46215897841262
H           13.20641135007999       10.82644364157201       -8.58783420703729
H           12.09398264543677       10.79288013974012       -6.39268367506962
H           10.02291031828928        9.47873261884336       -6.09238688829175
H            6.49212122425930        6.46236476237071       -8.11902536383572
H            4.65112806727439        6.57480191759194       -9.76178130135403
H            4.67171261949261        8.32370654041359      -11.49378928484729
H            6.51304344876931        9.95308412039101      -11.56925298683855
H            8.33337917468239        9.82241670946077       -9.91597563512275
H            8.07052371850121        5.65330582913963      -10.11013027495552
H            9.32385464492272        4.91850316138644      -12.07670506931164
H           13.48969416262621        3.91848088673528      -11.29391445402180
H           14.07517768819040        4.36053232383607      -16.73876966652069
H           16.23778731817470        3.23988518845197      -16.48910664690555
H           17.91695632899869        2.20586230239385      -15.08130648176336
H           18.96717334430203        0.39303062941506      -12.16004854846396
H           19.74788388665454        1.94954654122342      -12.19368254862924
H           20.03237039263761        1.77178437677116      -14.67900540861569
H           19.19626693688471        0.23943122343437      -14.67608163504015
H           20.98386778366282       -0.72964228707002      -13.18982885631975
H           21.80999148390348        0.80272911976789      -13.17770890696596
H           22.08634565992292        0.67362862053957      -15.68330794465405
H           21.26231448635622       -0.85943556291480      -15.69528407242670
H           23.04597438289901       -1.83150048905460      -14.20204902997627
H           23.86948764936318       -0.29659013542261      -14.18609798990478
H           23.35856015267004       -1.98077112004670      -16.70771725021517
H           24.90848900011293       -1.82497606608663      -15.88591582394650
H           24.18933028501720       -0.43338016343432      -16.69096708902200
H           17.31366557567049        1.85783838973002      -10.89077710733508
H           15.15943694217508        2.94989085058691      -11.07958399812159
H            8.61264482683410        5.42452192912548      -14.41217550936502
H            6.94214162936949        3.65454178732908      -14.77427920941786
H            7.60067298219834        1.29214802602753      -14.58523949771541
H            9.92855214581010        0.70724617175564      -14.04070483588818
H           11.58678528404721        2.50159656129152      -13.68287470022331
H           11.41668231106967        7.28416385904239      -11.89462978832386
H           10.62833460748087        9.59229657263328      -12.23533525085939
H            9.71569376870749       10.26110484495458      -14.41640115222039
H            9.59628257158144        8.62192385221133      -16.24830319124117
H           10.38709805377502        6.31404778299008      -15.87845909023276
H           12.96838009412297        5.41354690376823       -9.93843431009841
H           11.70105975186370        6.08573048120944       -7.94976487849790
H            9.00334271787137        4.63897229377060       -6.81675234204050
