44
 energy: -9.287041895955 gnorm: 0.000383437832 xtb: 6.5.0 (97a52f5)
C            0.92051733655221        0.19337001475074        0.17952854480466
C            0.09509378186477        1.19215961680031       -0.18115415105964
C           -1.35672961014489        1.14478480884877       -0.13732962375464
C           -2.06108005182324        0.08935119022290        0.49494995404653
C           -3.42076289056716        0.06411244083696        0.52178894063183
C           -4.17816046070070        1.09415881513533       -0.08454013327642
C           -5.58983048497840        1.09510226721169       -0.08012263170374
C           -6.28611907690178        2.10458113762961       -0.67765542492090
C           -5.61062383299932        3.15850009534835       -1.30547093212251
C           -4.24839466158662        3.18999951475532       -1.32728843620686
C           -3.49399362003650        2.15977421412209       -0.71786810175152
C           -2.08488977108029        2.15938887214045       -0.72474826270818
C            2.36982562232969        0.24625207258404        0.12525800154911
C            3.11371208465188       -0.92589648738922        0.30381299584972
C            4.48463974597398       -0.91252874200776        0.24343620526134
C            5.18158843376997        0.27767356719641        0.01771022525059
N            6.58489815944727        0.26717396839249       -0.07423078645074
C            7.48170309373057        1.35852195036143        0.02813841534079
C            8.70320311104824        1.32505942154248       -0.64577858436784
C            9.59158284814291        2.37213938822515       -0.54507500368487
C            9.28661786748738        3.46769980029607        0.23968838010219
C            8.08962894279227        3.50970728169944        0.92836587856676
C            7.19684339618061        2.46672363683917        0.82651108218262
C            4.44161075616867        1.44921205537780       -0.16061554780605
C            3.07039582283392        1.43560387685249       -0.10699746063977
H            0.49185122113906       -0.73567890227422        0.50780786279868
H            0.52544315495121        2.09929224111111       -0.56410671370338
H           -1.50910322974254       -0.69989302501353        0.97318908365487
H           -3.93992435072920       -0.74360543430391        1.00836718778579
H           -6.11025801969858        0.28548119923629        0.40192335683168
H           -7.36382573406382        2.09383392861169       -0.66862914313206
H           -6.17480145811656        3.94837729134172       -1.77401559733749
H           -3.72947328695181        3.99967425767997       -1.81086992541010
H           -1.56779756850126        2.96892905462131       -1.20771201059757
H            2.59313435635761       -1.85132807779536        0.48217630845365
H            5.04174359671583       -1.82354842384263        0.37609067410819
H            7.00875256058208       -0.63599285917795       -0.26626339014954
H            8.93606634377313        0.47220970876987       -1.25927904763154
H           10.52654701594873        2.33761267161716       -1.08030440675248
H            9.98371846411632        4.28592767073718        0.31872734943401
H            7.85691696029521        4.35792021514688        1.55147341384461
H            6.28210263018077        2.48277570936302        1.39217790138061
H            4.96067979915305        2.36570730442203       -0.37690903591380
H            2.52890100243667        2.35563069197167       -0.23616741079839
