101
 energy: -19.673522877124 gnorm: 0.000486531371 xtb: 6.5.0 (97a52f5)
C            1.37621115864229       -2.38746403813752       -1.60182588571909
C            2.12712011020942       -1.07069336610986       -1.72486257583604
C            1.67119203808580       -0.03079261076694       -0.70018923292947
C            2.42290776210192        1.29517584797200       -0.81654542436090
C            1.95609658437046        2.33682640390532        0.19980259662620
C            2.70508991937293        3.66570454275571        0.07883355341135
C            2.29564294947276        4.68980904826167        1.10084773489259
C            0.92998088620410        4.93713220818256        1.43575477197146
C            0.75847774572168        5.85548493815574        2.41331665353483
S            2.27565474787850        6.45575172562920        2.96293697679083
C            3.16632678265257        5.47941759342367        1.81938758753429
C            4.62455395771375        5.55614096029738        1.70831516746164
C            5.27620687884216        5.48146145749384        0.45872824720132
C            6.64026191155087        5.60108181702722        0.34444776931886
C            7.39717999800453        5.80135345505884        1.49724526747141
C            6.76456943569896        5.89060355044775        2.76501014981683
C            5.38219578058740        5.78149298355944        2.85537433218479
C            7.79306577717328        6.19305270632920        3.75437756952038
N            8.94519539850961        6.20857201089937        3.06533749625686
C            8.80989480781562        6.05610690091636        1.69710267705699
C            9.84520701322556        6.32140566356960        0.81291421821733
C           11.05699594310757        6.73402333159459        1.34690315920394
C           12.36946637823480        6.91492586881790        0.76004574502923
C           12.81675082780519        6.85831805293794       -0.55838099384350
C           14.16687738371901        6.93257604354825       -0.80112559677116
C           15.11023643179409        7.05607695201942        0.24029277149868
C           16.54058515583314        7.00986272881938       -0.07871795940551
S           17.18620087202080        7.72042246539444       -1.53959793970321
C           18.79480733037063        7.23613491327461       -1.16237633477520
C           18.83113380418105        6.56271670205032        0.00923562071300
C           17.55801866751330        6.41748722738977        0.63890491351549
C           17.40312552349039        5.67782856356565        1.93971290916474
C           16.35669390352490        4.55674608195028        1.90490814909121
C           15.96664028249703        4.05941719898961        3.29960553594138
C           14.66888608712105        3.25225539507577        3.30145645651040
C           14.25004216430906        2.79777746026768        4.69982778278059
C           12.88933473439310        2.11983340693919        4.71561330925557
C           14.65489826763653        7.15984867831198        1.55402916364726
C           13.29448874069678        7.07338733318225        1.82524358741677
C           12.55110358373756        6.98303228282271        3.07798416158084
N           11.26669769730060        6.85148720993674        2.70922706663095
B           10.22510951232390        6.60653698426307        3.79987518810557
O            9.90965321733421        7.79641000026875        4.64334248772079
C            8.83034364702541        7.59235315665593        5.46824977101163
C            8.76047237690380        8.23728681855247        6.71109698332912
C            7.68824327760980        8.04914855814095        7.54410668751984
C            6.63992400724867        7.21894498213378        7.16603067499643
C            6.66330101857711        6.58495257134970        5.94823572121861
C            7.74364450833796        6.75084903027057        5.08046684878469
O           10.77466216287607        5.56477871707510        4.71654971919640
C           12.01560018694753        5.89814331147021        5.20278837662333
C           12.41063321052880        5.47127491400781        6.47835826287378
C           13.64803591921563        5.78692728274850        6.97631195107642
C           14.54255122587565        6.53255269171060        6.21823607284710
C           14.19771222744431        6.95557265528647        4.95834310017848
C           12.94356769814143        6.65574676845908        4.42488469958399
H            1.70890472954679       -3.12040410808236       -2.34004838738034
H            0.30327921744249       -2.24422935053929       -1.74151268134753
H            1.51560916415094       -2.82988606499092       -0.61389196514473
H            2.00639569695689       -0.66002974735745       -2.73601280548320
H            3.20641371727214       -1.23942707291820       -1.61418020466241
H            1.79142732874562       -0.43425672017753        0.31246878398958
H            0.59441563563711        0.14601002610325       -0.81005077703225
H            2.30874480196221        1.69522642003042       -1.83126047516325
H            3.49913869166640        1.12087268010241       -0.69825107774350
H            2.07441626513781        1.94198128042917        1.21603883148594
H            0.87932990759543        2.50310209071968        0.08142519680667
H            2.56373186962151        4.08300561511310       -0.92429768015748
H            3.77821690526501        3.46939662263390        0.17257116563834
H            0.10875885755632        4.43479486830991        0.94776505680428
H           -0.18718628250517        6.17589875670278        2.80820627064594
H            4.67983133404830        5.37648575139730       -0.43045171758579
H            7.12604864118352        5.56355843741922       -0.61460932438793
H            4.88758860110173        5.89279449925231        3.80066473586726
H            9.71267471711786        6.21250638222523       -0.24702060544218
H           12.11017192097034        6.73128023222748       -1.35946129807947
H           14.53168471824848        6.86595059137133       -1.81112074224718
H           19.64232545435796        7.44634151425775       -1.78720302743918
H           19.73821886807182        6.16243199269724        0.43663307185331
H           17.15871084717381        6.39822851658521        2.72707452434727
H           18.37152210747548        5.26186051529210        2.24045735214724
H           16.70962338660052        3.72485611344761        1.28349232127736
H           15.45616357474307        4.91329453435813        1.39467362607810
H           15.84871251673598        4.91857598781555        3.97073575041191
H           16.78365926754834        3.47102784115661        3.73390232275630
H           14.76763891952662        2.38408031495029        2.63900718508140
H           13.86565988379114        3.85706273925310        2.86248074569209
H           14.24312312645353        3.66503163322389        5.37208153464482
H           15.01665408012848        2.12778594852677        5.11079106313839
H           12.11019381517122        2.79427971449082        4.35531791068172
H           12.60407771193919        1.79605114536369        5.71885382129277
H           12.87907612499554        1.24009437430082        4.06994671295636
H           15.35177095208909        7.28650820094023        2.35745320660337
H            9.57422938505137        8.87848636957550        6.99948679845866
H            7.65701528956987        8.54778781775241        8.49910260553581
H            5.80307852932993        7.07687522560206        7.83005386320253
H            5.85278158967856        5.93938496347436        5.66239580340315
H           11.71565318664772        4.89317313177864        7.06074560854760
H           13.93122577325122        5.45319531578238        7.96118281753693
H           15.51290296518277        6.77454184881370        6.61969733245630
H           14.88994658641421        7.53952291253385        4.37940904708609
