122
 energy: -22.730831290218 gnorm: 0.000731290659 xtb: 6.5.0 (97a52f5)
C           -0.66670658997808        3.36581303092705       -0.65488200805994
C            0.27953696559760        2.42190556826019        0.07164922840190
C            1.53254708036668        3.12449932878582        0.59880311505749
C            2.48605718798442        2.17939427608537        1.33075485593894
C            3.73974911031974        2.87862362963403        1.85524505983311
C            4.68204655366828        1.94131618514165        2.59121074813148
N            5.86810590253296        2.63193447046510        3.07259487267952
C            6.09278666387844        2.95190637406590        4.41456587634345
O            5.37712602422919        2.71330330509813        5.37187433274235
C            7.37281100097649        3.63817923653832        4.43780206614139
C            8.05783497901780        4.14660441271835        5.54636990813575
N            7.52820520509932        4.05831334532081        6.80883913106446
C            8.20766136455979        4.56110772129357        7.91129339542839
C            7.67971852538561        4.49984646730031        9.19116161769589
C            8.38683333232676        4.99249423359443       10.27650598047361
N            7.86856675687062        4.96891901608707       11.56493369934201
C            8.58508930462516        5.45383357853143       12.62951601871835
C            9.88658482254851        5.97434033181282       12.41720935657827
O           10.43002403123275        6.02777613432402       11.15214328245248
C            9.67254208728710        5.55026158647138       10.08577799612447
C           10.18532902583292        5.62020987205839        8.79777757236067
C            9.47782438420401        5.14681276878231        7.70121801248897
O           10.03157482043551        5.26167309307219        6.42906384072727
C            9.31583865641528        4.77240727412507        5.35834209048279
C            9.80258130185026        4.87226935979268        4.04117942674809
C           11.02937364889748        5.49295498211774        3.56305322567262
O           11.88460190524020        6.07252910661569        4.20803860307221
N           11.02942086221313        5.31347005675242        2.17656457139762
C           12.00709860746915        5.92595055837885        1.29155956200392
C           11.73426874189125        7.40917509624122        1.10463924189516
C           12.73117863710054        8.09765152886884        0.17381307930394
C           12.44083943838121        9.58735628414717       -0.01401691340287
C           13.43284234472527       10.27994453860368       -0.95057747156216
C           13.13219750231297       11.75916782827285       -1.14019701824095
C            9.87346447083683        4.66710055871007        1.72713180234895
O            9.59899681503634        4.43679824613507        0.56370860193677
C            9.09784741829934        4.36723421243462        2.93057855208310
C            7.86980455911736        3.73296088550874        3.12982666121047
C            6.89660113090716        3.09255087829750        2.24023947960978
O            6.93337425714596        2.96979082926412        1.02988088233066
C           10.59434188025039        6.43581277425636       13.54347941893430
C           11.94142717427061        6.98294175599250       13.61873423958573
O           12.74378590838887        7.14208541259718       12.71641767694557
N           12.15179040025657        7.28690095552215       14.96737023705717
C           13.42461466629694        7.74434187437371       15.50287684615249
C           14.14772480213732        6.63592856732737       16.25007889915411
C           15.49665273812185        7.06944337407923       16.82209840321850
C           16.21123951190059        5.94976680162414       17.58005420344878
C           17.56787797643804        6.37628656780295       18.14462945813756
C           18.27294359617745        5.25757669688888       18.89690484547781
C           11.05673454488127        6.94105126718535       15.76470993402154
O           10.99956782704089        7.05262843650118       16.97555599760247
C           10.05105101166951        6.41291960847097       14.84329299995058
C            8.75986091500139        5.91802910484999       15.03761870657111
C            7.88248816605643        5.78645728961806       16.20440147563848
O            8.08675135517806        6.12629019455408       17.35521007404088
N            6.70295905815634        5.19649581063946       15.72912516356942
C            5.50152396930515        5.03180011566945       16.53114734481537
C            4.54276638796178        6.19547192937782       16.34174622071179
C            3.27037854358369        6.07587465299582       17.17919432943069
C            2.31540605052853        7.25472959267051       16.98604755832961
C            1.04403687951359        7.14278230699562       17.82987451584769
C            0.09889749570300        8.31867095208377       17.63383223996950
C            6.74005706925858        4.99109139159516       14.34683956938964
O            5.85859985991327        4.54453672469081       13.63325128681221
C            8.05417933968821        5.44217762711826       13.92345932582306
H           -1.55440922377152        2.84940736364411       -1.02540007398553
H           -0.17707301352015        3.83280700681982       -1.51067620193375
H           -1.00372416063416        4.16864003073214        0.00247132839282
H            0.57762991628993        1.60200946727892       -0.59428058867167
H           -0.24147846709908        1.93624434889900        0.90668935713524
H            1.24087451269100        3.94254521327390        1.26765417825588
H            2.05990973292922        3.60749192442798       -0.23199296605998
H            2.77580582020551        1.35985758894819        0.66283900959275
H            1.95912837762594        1.69860940314958        2.16317867201592
H            3.45756338766376        3.70260304750049        2.52061962486510
H            4.28010952524358        3.35037771655441        1.02601079648952
H            5.00614330546764        1.12585185023940        1.93752575540364
H            4.18305260446958        1.48193724108155        3.45025951910910
H            6.61962381993567        3.60527456304690        6.91275207112519
H            6.70941036620275        4.06648785392210        9.34378928078394
H            6.93093777345693        4.60958303396211       11.74740780004509
H           11.15519747636469        6.05405352931477        8.64491520173606
H           11.97709378177885        5.39908910651590        0.33283540625479
H           13.00228025098814        5.76319119147536        1.71631171710066
H           11.73883357836578        7.89997917375973        2.08502355767847
H           10.71546866157995        7.54109315975299        0.72233863846497
H           12.72884178437492        7.59677375818522       -0.80126494081399
H           13.74780134170998        7.96656566254065        0.56228396063798
H           12.44488892729976       10.08836071723768        0.96104219575554
H           11.42228854734173        9.71694204896879       -0.39806550395059
H           13.43118790246157        9.76834689035863       -1.92156603487106
H           14.45041973907378       10.14938109543881       -0.56065813670564
H           12.13717637557237       11.90794278962658       -1.56225124042175
H           13.84842667348739       12.23925377688218       -1.80987647208655
H           13.16277354956827       12.29229933861896       -0.18884438373083
H           13.23149918245619        8.59608539051585       16.16194749974559
H           14.03155391598651        8.11485972646607       14.67086328183018
H           14.28503364280948        5.77970954645758       15.57965316375490
H           13.50124094428373        6.26849540975733       17.05584873349015
H           15.35490702578485        7.93058461359770       17.48540938597354
H           16.13895024730563        7.43334496837676       16.01170319200012
H           16.34437411197541        5.08568637531668       16.91870961277129
H           15.57101458917039        5.59090939921034       18.39438525193554
H           17.42952915307163        7.24361067917684       18.80278278358795
H           18.20313292679617        6.73766079758260       17.32581958787876
H           17.67101928556455        4.90711954581262       19.73657987256331
H           19.23812194261362        5.57733872006348       19.29451454847876
H           18.45282313163016        4.39903973169325       18.24820979102113
H            5.80155201015166        4.93966644747065       17.57954716331180
H            5.02842969530550        4.08657486292978       16.24820291951313
H            4.28421919392231        6.27728374354088       15.27946307935782
H            5.06137757708603        7.13037553296221       16.58377265902497
H            3.53595600707758        5.98789128850432       18.23908004229147
H            2.75499037227671        5.14025595465715       16.93299969616502
H            2.04686014918704        7.34017630802285       15.92668386547530
H            2.83385199801395        8.19024441288718       17.22630635864576
H            1.31931187814794        7.05391466566258       18.88858790328317
H            0.53088528941255        6.20318205999275       17.58833033788909
H            0.58066071267224        9.26014753836089       17.90172693522917
H           -0.80199607309768        8.22496875594687       18.24339758679474
H           -0.21627774229229        8.40151165651102       16.59266991436601
