67
 energy: -12.554289760407 gnorm: 0.000763869821 xtb: 6.5.0 (97a52f5)
C            0.97416870626908       -0.51604374782030       -0.29700298279015
C            2.48870198536395       -0.46341034186385       -0.16423117849919
C            2.96307062152703        0.63100804103216        0.79368864502938
C            4.48479528668853        0.69020656243673        0.93341646346835
C            4.95337937192244        1.78328340012132        1.89267024078728
C            6.46529034542354        1.85973951824965        2.02786872190981
N            6.87466425344239        2.91742854072812        2.94025910165013
C            7.51567943582084        2.69021585857055        4.16179647449558
O            7.86346978958093        1.62402982291764        4.63822266712343
C            7.68259986833926        4.00456457924359        4.76155795734105
C            8.26806808340931        4.32248670785920        5.98967080105320
N            8.78229283864587        3.34532334939320        6.80539344812483
C            9.35966966696038        3.65887076902217        8.03341801700983
C            9.87839362035401        2.68441670209424        8.87400681326401
C           10.44591203428346        3.03361417828391       10.08085271617407
C           10.50179218386154        4.35978141060010       10.46151365390756
C            9.99064780663114        5.34017213550617        9.63865344031163
C            9.41152812205493        5.01572224699299        8.41722687905851
O            8.89865336910666        6.02913650689101        7.60600901402380
C            8.32623794009506        5.67850883058896        6.40137598989525
C            7.77853926839306        6.64378560577889        5.53798739710232
C            7.69319774238839        8.08723545875540        5.71186570529515
O            8.08671815270027        8.75355829188445        6.65207916439810
N            7.05214993996640        8.57918011307534        4.56992040974646
C            6.76061315924612       10.00323633396139        4.41054657060230
C            6.02852281140539       10.35064312704220        3.12448252079204
C            5.69002224939319       11.83471037244700        2.99652050325679
C            4.94233361836072       12.16436119537900        1.70396665789965
C            4.57402601496785       13.64405318206534        1.58173268572384
C            3.82499372600331       13.96087669259020        0.29616027046626
C            6.71930479103276        7.54922470782114        3.67755866477963
O            6.15584014828775        7.66866432831997        2.60577534435780
C            7.18791423220635        6.31154094757247        4.30451679799497
C            7.13927647076104        4.97469456981398        3.90679312707914
C            6.61012641255100        4.27743495638677        2.72895236885002
O            6.04765423586461        4.74311220140835        1.75564962335950
H            0.65078632824491       -1.30088830496961       -0.98358418331206
H            0.57817767955143        0.42998663403136       -0.66909967691654
H            0.50046082327723       -0.70690825008186        0.66707480494467
H            2.94779852304589       -0.30689761434861       -1.14874756791705
H            2.87059556705454       -1.43405825679716        0.17716548541795
H            2.50934776490257        0.47755590093877        1.77967220601273
H            2.58751211483038        1.60343301620012        0.45454997966494
H            4.93863141447296        0.84702160196996       -0.05202363646414
H            4.86176428492907       -0.28204209460900        1.27150222678473
H            4.50920679983058        1.62704764889123        2.88237298294651
H            4.57622032232642        2.75762862831537        1.56007859094604
H            6.93242490182477        2.04765035938254        1.05651489075441
H            6.87160780302893        0.91303277112626        2.39744657721060
H            8.72246375814146        2.37861808235542        6.48432037857797
H            9.83181025935512        1.65302182387280        8.57190664736444
H           10.84576585820164        2.27049398503336       10.72814850834836
H           10.94687815654023        4.62916922317526       11.40522695561906
H           10.03007779730736        6.37567705702679        9.92680455700488
H            7.70868967207215       10.54651036923283        4.47047838213463
H            6.17435068000298       10.31888746564987        5.27911050803187
H            5.11192538674932        9.75248337639443        3.06195866821212
H            6.63120786626092       10.02700945195803        2.26785843179283
H            6.60910073596057       12.42951335419191        3.05368831579225
H            5.09021903804662       12.14994612199127        3.85830639438572
H            4.03365662283949       11.55432142138646        1.64038641251112
H            5.54873529672174       11.86347042696537        0.84167302063433
H            5.48590415723388       14.25142307149142        1.64650248509151
H            3.97214249935779       13.94018900011360        2.45047485798683
H            4.42272197804674       13.70785851153907       -0.58075416812407
H            3.56591360721468       15.01897979654174        0.22383106037892
H            2.89755399931272       13.39005826590809        0.22972120915191
