67
 energy: -12.670372094878 gnorm: 0.000940653364 xtb: 6.5.0 (97a52f5)
C            1.06991100052663       -0.56412765564894       -0.20831382874264
C            2.57820204056645       -0.54568806727305       -0.01112910580494
C            3.04417697748872        0.59070915839815        0.90089848407091
C            4.56038343765084        0.62063382628646        1.09732642268118
C            5.02057741154706        1.74823704071965        2.01990407976676
C            6.52846456088071        1.79892899268333        2.20253192428106
N            6.93166116648772        2.87563852347939        3.09464419586038
C            7.56870976232878        2.66948474787994        4.32141107959805
O            7.90725079636636        1.60716668460629        4.81248510912526
C            7.74220214254840        3.99447780819933        4.89740973409312
C            8.33592967426533        4.33555758396866        6.12174861326054
N            8.84810856269823        3.34673538852588        6.93930133102701
C            9.46804680071703        3.50424030696340        8.18310167670024
C            9.94163553011455        2.40956728315579        8.90031221046319
C           10.55132151682855        2.58452239906106       10.12659525862882
C           10.69898295554174        3.85166361293314       10.65933700478558
C           10.23552137967053        4.95064394785981        9.96208785250321
C            9.62846799916828        4.77326621158020        8.73960844444355
S            9.07521952637499        6.11483134108858        7.91258707856214
C            8.38110112162309        5.69659991952042        6.46598860098437
C            7.85344983014673        6.65819633605492        5.60689966824522
C            7.77659707350921        8.11057283990023        5.74011924788992
O            8.17028782358540        8.81861598135676        6.64820185172766
N            7.13868871337847        8.57037497043026        4.58201847519108
C            6.89009644407821        9.99421057257791        4.36362743053138
C            6.04787459411670       10.30148486108690        3.13590255864579
C            5.77472664580331       11.79218966431486        2.94309709047662
C            4.95456100994642       12.09046193083065        1.68741368289378
C            4.67160614442292       13.58154121290048        1.49402418534980
C            3.86974963523409       13.87187561344092        0.23420001479141
C            6.81168872966922        7.52047408036749        3.71191242742656
O            6.26437279477916        7.61797161672399        2.62974583494287
C            7.26557285542065        6.29766409758150        4.37692039795294
C            7.20677545136368        4.94983784568536        4.01848820446235
C            6.67543259512257        4.23178203379843        2.85446144796252
O            6.11660782019070        4.68021463935739        1.87121144605372
H            0.75222697765511       -1.38225361356272       -0.85724607496635
H            0.72019134223915        0.36617793146484       -0.65740307178417
H            0.54956604281347       -0.67849324826110        0.74340230065577
H            3.08359391077912       -0.46141980474112       -0.98152520085919
H            2.91523367502819       -1.50404530373431        0.40373535243604
H            2.54908518035704        0.50558469299014        1.87504424189211
H            2.70829158471691        1.55059522091328        0.49211611946906
H            5.05534371484438        0.71726949631128        0.12409333919573
H            4.89878438118794       -0.34220691392427        1.49730608254148
H            4.54078545739535        1.64749558766586        3.00009332239034
H            4.67654832897539        2.71368136866632        1.63038693630544
H            7.03148363224489        1.94567228340412        1.24215777502561
H            6.90189155841339        0.85674083486589        2.61592627633961
H            8.75167914765325        2.39815536095120        6.57504405639209
H            9.82744853513675        1.42317677845950        8.48626606225618
H           10.91400595793206        1.72840834035695       10.67104957638472
H           11.17419947375225        3.98287288974817       11.61748562147644
H           10.33759516957258        5.95017152013849       10.35219976924525
H            7.86093089333155       10.49466862439875        4.29697293515768
H            6.40711517568452       10.38574224158173        5.26437134424028
H            5.10162232546628        9.75209630563495        3.20139572311689
H            6.54625903179761        9.89428751888726        2.24839242721858
H            6.72475393737982       12.33746300720161        2.89951618225211
H            5.25673792897625       12.18824468269558        3.82437672687999
H            4.00803378681858       11.53890678491104        1.72687324168736
H            5.47686741236492       11.69886972374018        0.80673056405916
H            5.62181828667445       14.13019820290379        1.46989502514338
H            4.14213985161105       13.96686557578264        2.37484897280565
H            4.39819738310815       13.52936092037628       -0.65673422296333
H            3.67420985473243       14.93889516754753        0.11067906446827
H            2.90598753719101       13.36106047220574        0.25407940070158
