66
 energy: -12.473444518444 gnorm: 0.000485385047 xtb: 6.5.0 (97a52f5)
C            0.82226678842707        0.23969814662813        0.21836790163485
C            2.33878176696618        0.12200272435260        0.21002625558546
C            2.86615273141746       -0.66903484010520       -0.98846341145046
C            4.39027155030680       -0.78972844042226       -1.00499283925922
C            4.91248036486170       -1.58756449320276       -2.19869482019145
C            6.42658310048614       -1.71122292181678       -2.22337879341083
N            6.88400456739715       -2.47700832106736       -3.37201691513266
C            6.68967556586688       -3.85284366526248       -3.51463250280906
O            6.19193976758562       -4.60023030529530       -2.69688245692719
C            7.19212583983362       -4.18623810231320       -4.85015677454729
C            7.23338256468255       -5.46466936095326       -5.48402217002893
O            6.78465984876217       -6.56108010890591       -4.83831365647011
C            6.86015721394059       -7.73386042015784       -5.52193100406945
C            6.40950393261685       -8.92927318361887       -4.91598434773947
C            6.46893260252292      -10.12025296192148       -5.57138668785799
C            6.98175851811767      -10.18516911658443       -6.87061024204438
C            7.42616588812075       -9.05796277991317       -7.48974849441469
C            7.38362091495393       -7.80032908051987       -6.84488427425381
O            7.83681977074019       -6.69471416077389       -7.49330171548045
C            7.76105009926387       -5.53187742977772       -6.81337813741610
C            8.21081024780624       -4.31625731769894       -7.41163818422615
C            8.78169527205126       -4.12017706315443       -8.74542139527059
O            8.97897334255163       -4.96252988253218       -9.59818046202586
N            9.05741940470079       -2.75418639340523       -8.85078027351520
C            9.63458220526898       -2.17944147297892      -10.06446975624571
C            9.85445928776361       -0.67674123735153      -10.00238620507531
C           10.43805666377922       -0.09604308564852      -11.28924016261233
C           10.65334072562873        1.41610165476191      -11.21887167958910
C           11.22314850162848        2.00203718656732      -12.51214139242318
C           11.43297215436922        3.50673076968394      -12.43679509761945
C            8.70112075687769       -2.07104705940036       -7.67889882114012
O            8.82243114281821       -0.88185729481391       -7.46853620620868
C            8.15753345679064       -3.09467490943248       -6.76957844787490
C            7.63501390255536       -3.02718266418511       -5.46051944304504
C            7.42800117748007       -1.90657037827660       -4.52687137721892
O            7.65772592217008       -0.72546417069237       -4.68760093241238
H            0.46057792017263        0.80480656368280        1.07957186960655
H            0.35112095179756       -0.74379822704171        0.24913589272515
H            0.46134356887790        0.74257227999579       -0.67996019297694
H            2.68468971469679       -0.35244098728697        1.13723906669251
H            2.79394835048083        1.12065694527141        0.21334094936020
H            2.52491243310982       -0.19850372365842       -1.91786202041264
H            2.41867010596166       -1.66972086502174       -0.99313023359755
H            4.73274021900343       -1.25599253960822       -0.07384887922066
H            4.83866420107444        0.21059573155323       -1.00728025345860
H            4.57303303461753       -1.12622046837164       -3.13325096386111
H            4.47205409113100       -2.59161327232715       -2.19801739330484
H            6.79109120157386       -2.20435963892598       -1.31718487322895
H            6.89793157901618       -0.72417024275730       -2.26112742140921
H            6.01595259399522       -8.87325618052308       -3.91605799364119
H            6.12069551458282      -11.01905836575986       -5.08949503234361
H            7.02353198653466      -11.13309256597220       -7.38129344693646
H            7.82134297186304       -9.10141979585843       -8.48966230385751
H            8.97152621005812       -2.43353981461575      -10.89714658878555
H           10.57924694791136       -2.69634411589803      -10.25923864369423
H           10.50822938073745       -0.44305643859153       -9.15409293599381
H            8.90395638459407       -0.18422782325739       -9.76646668066818
H            9.77809340342599       -0.33437003081696      -12.13145951524138
H           11.38768321782526       -0.59288477117698      -11.51957839889689
H           11.32041881528171        1.65385191553175      -10.38216269476484
H            9.70528996612242        1.91102870589860      -10.97826939982439
H           10.55323435702369        1.75688753132652      -13.34619987279116
H           12.17022194082012        1.50109676171887      -12.75019792161551
H           10.49492443639792        4.02555990675126      -12.23401440118412
H           11.83756214264779        3.91024083924922      -13.36703649577215
H           12.12620479755984        3.76816482668920      -11.63601829811518
