70
 energy: -14.406217392243 gnorm: 0.000518268396 xtb: 6.5.0 (97a52f5)
C            0.90487209355324        0.19338228101470       -0.10795383744622
C            2.41970885423995        0.32867655709662       -0.10175607412370
C            3.03147474505169        0.20970574058685       -1.49860768760401
C            4.55535881025832        0.33072960247942       -1.49755274045629
C            5.16599039215526        0.19731213569899       -2.89219313531705
C            6.68541802504256        0.25212409646634       -2.88720713757355
N            7.23850050611820        0.15956750736639       -4.24379594147317
C            7.49768876261359        1.24570445551905       -5.09149303414894
C            7.43624966591555        2.61959582281059       -4.87236946209748
C            7.75098299699560        3.50156435413615       -5.90013211568408
C            7.68537531338168        4.92717499410335       -5.62431762397488
C            7.92603568716878        5.97277296997465       -6.45601972327517
C            8.26372848882647        5.80216520041982       -7.80360986068677
N            8.53730084985660        5.66234056299332       -8.92435657937286
C            7.81235005492889        7.36359374288692       -5.96997184318444
C            7.94571664804615        7.69022357896363       -4.61902784426178
C            7.83245918279599        8.99499731136536       -4.19165042199818
C            7.58794640029584       10.00522687016422       -5.09930548139954
C            7.46289340549263        9.70661350728037       -6.44045786099389
C            7.57687721811977        8.40360123296335       -6.86991569970667
C            8.12633317398507        2.96900802602052       -7.15775664421735
C            8.18863588224931        1.62242214693870       -7.39179525540775
C            7.87308344720512        0.74286286088298       -6.35240400507642
C            7.82281239307136       -0.69168386978522       -6.27347793331741
C            8.06508736074013       -1.69939280731262       -7.21105917092572
C            7.90238217702265       -3.00424210378578       -6.83048113900837
C            7.49631813008642       -3.36560068121492       -5.52065716110477
C            7.34344227944762       -4.77907176714214       -5.22132422336511
C            6.97824519194163       -5.36743745575361       -4.05471575889422
C            6.66649632955394       -4.63071742220807       -2.90702074832948
N            6.40602031961445       -4.02511579857940       -1.95032947395445
C            6.86662096662674       -6.83778703375738       -3.95738663882261
C            7.60370382716262       -7.69100086549564       -4.78069438876013
C            7.47642903973962       -9.05876821102169       -4.67665649227411
C            6.61485851534927       -9.60808057197054       -3.74909123652522
C            5.88423892823425       -8.78335666109018       -2.91856796605579
C            6.01166673968647       -7.41617025796935       -3.01875038402711
C            7.25851902554915       -2.35705451628711       -4.59511361680766
C            7.42101382613225       -1.02657635611023       -4.96576075548762
H            0.48166048805307        0.27944700772995        0.89496638608282
H            0.59722692208257       -0.77224418584340       -0.51247919705174
H            0.44281220547571        0.96403679723246       -0.72699173309461
H            2.86326301590052       -0.43239645681044        0.55338433256182
H            2.71136749084409        1.28998813948385        0.34083256582058
H            2.60150285115099        0.97465160320527       -2.15606363544475
H            2.74015763871345       -0.74802660459917       -1.94615448616815
H            4.98308183267719       -0.43068312023669       -0.83522349732526
H            4.85005828046224        1.29024633955672       -1.05623696995040
H            4.77567407476733        0.98510671018177       -3.54695979993623
H            4.83968881321887       -0.74200179499304       -3.35326862842364
H            7.10085697207517       -0.56095797355893       -2.28572120014863
H            7.03786715208321        1.17943837702441       -2.42758659276542
H            7.14641011915004        2.99240001855897       -3.90792133379382
H            7.38547357023915        5.17022322638502       -4.62096379193301
H            8.16667216496312        6.91834482178260       -3.90343942670480
H            7.93883452320646        9.22866947312890       -3.14485281737748
H            7.49955942650228       11.02502391823566       -4.76218519057894
H            7.27740477544841       10.49422602583632       -7.15236977008817
H            7.48206765302313        8.17296882135050       -7.91626713014687
H            8.36811384608856        3.64035411840986       -7.95837442165218
H            8.47164802419981        1.23329189785191       -8.35384028224453
H            8.36828032639571       -1.44005525406180       -8.20991081141594
H            8.08471954149278       -3.78830525262364       -7.54507598944678
H            7.52541219852507       -5.43411868951846       -6.05418349311424
H            8.29949254514843       -7.27646938389866       -5.48856689813041
H            8.05418257035249       -9.70264125695108       -5.31959128861576
H            6.51631957520622      -10.67841877259728       -3.67054735484062
H            5.21354462479150       -9.20989210875162       -2.19067292629253
H            5.44288290418604       -6.77398164827165       -2.36960019027202
H            6.94564821932137       -2.57710397189398       -3.59461733037143
