80
 energy: -14.179721981848 gnorm: 0.000685867668 xtb: 6.5.0 (97a52f5)
C            1.82949529559233       -0.48637164872954       -1.60143714236824
C            3.26191590220022       -0.94586576046926       -1.37858519932836
C            3.54155208592810       -1.32685946432635        0.07587280770004
C            4.97996444369015       -1.78771913251365        0.31131977843136
C            5.25154799825218       -2.16123716684922        1.76749159971392
C            6.68373395492502       -2.60522701136709        2.01844641930157
N            6.91047952631084       -2.91989906962652        3.43238658772981
C            6.74189574510842       -4.16512892943163        4.05090305074228
C            6.51617625087807       -5.43161036876089        3.51217111781871
C            6.38998533357109       -6.51237891327155        4.35827222463634
C            6.16104348981902       -7.86529996232546        3.79367911901272
O            6.06848941128973       -8.01325527838502        2.58763072341199
O            6.06930480381363       -8.88784789663952        4.70455261099320
C            5.85469266788923      -10.11998334097951        4.04893137563808
C            5.75011130447784      -11.27924352643182        5.01915837820595
C            6.48336449635463       -6.33381813154231        5.75316701179192
C            6.69627413923134       -5.10011036070890        6.30653048978225
C            6.82672342434154       -3.99761841143325        5.45387542788068
C            7.02553456215399       -2.59958868982877        5.68895375532726
C            7.07158140360149       -1.96034033993549        4.45007288839932
C            7.25272522808743       -0.55942503532264        4.67914310644580
C            7.37653533613659        0.53965433051134        3.82151056464221
C            7.56595356158011        1.77898657464116        4.37064493843405
C            7.63663377936607        1.96673093339309        5.76577722122400
C            7.85719043234586        3.32345573831451        6.32424022711438
O            7.87294698893860        3.48940564034531        7.53142431540187
O            8.03758210894490        4.32737012232359        5.40597372621282
C            8.25529451441027        5.56231631457267        6.05527935916773
C            8.46975160668528        6.69897407724806        5.07625888595908
C            7.50915890540485        0.88957752287535        6.61643613517415
C            7.31474543359243       -0.38330096369559        6.08113996616470
N            7.15667713723206       -1.62798085954427        6.70099899178819
C            7.21484353652424       -1.89533439637430        8.14102205669350
C            8.64300339485632       -2.06588809741015        8.63190669935497
C            8.73131772663948       -2.31413844436341       10.13725367186034
C           10.16850391925818       -2.45652456665188       10.63711254862753
C           10.25743333631555       -2.69309830606595       12.14567459797049
C           11.69015919097879       -2.81626919670866       12.63988161676336
H            1.64261782911146       -0.21639012691981       -2.64282420698231
H            1.59551694899608        0.38589753205116       -0.98900840635583
H            1.11824533711988       -1.26875227685657       -1.33186218748373
H            3.96291609905195       -0.15993910590334       -1.68846877158684
H            3.48950341270058       -1.80160464177625       -2.02739747656115
H            2.84719719002867       -2.11529270209292        0.38963372188467
H            3.31781485894833       -0.47435416580634        0.72814236115738
H            5.67522920138123       -0.99993939646687       -0.00233595840646
H            5.20535288632205       -2.64291471576097       -0.33683027632004
H            4.56492525121002       -2.95519307071238        2.08333963235080
H            5.01790260471982       -1.31024359142743        2.41776280462664
H            7.38922328821330       -1.82437606764002        1.72138740040937
H            6.93035117482075       -3.48393824468473        1.41645923606722
H            6.44474831626710       -5.56959388883875        2.45006999977063
H            6.68322068761185      -10.26400196912998        3.34230684440608
H            4.94064569900400      -10.01745196553982        3.44854237706297
H            6.66043588076571      -11.36820666139618        5.61253302718969
H            5.58639730531198      -12.22987685665839        4.50854582149416
H            4.92616821279552      -11.12530184379618        5.71636577137029
H            6.38127529486399       -7.19942773006113        6.38429144954274
H            6.76516159157384       -4.96822082197326        7.37142844647976
H            7.32676646075876        0.39963367278804        2.75653866098604
H            7.66939470626012        2.64162613845584        3.73574405535898
H            9.12278115043304        5.43619960780051        6.71718557035192
H            7.38758695689578        5.74982334564466        6.70206939937067
H            9.33184218271233        6.50112685812231        4.43861743535082
H            8.63612733640480        7.65161593716948        5.58217885658113
H            7.60517227739275        6.81200211782733        4.42160445147076
H            7.56277521549288        1.03317236494815        7.67889233535138
H            6.62198292288320       -2.78884161763986        8.35420635422347
H            6.72190327689282       -1.07190528369939        8.66540396531118
H            9.22564204063344       -1.17594402959597        8.36716653886602
H            9.11976341233398       -2.88954547260994        8.08799525265958
H            8.15925697073295       -3.21284874250305       10.39685018444145
H            8.23578661172523       -1.49580201464680       10.67314029500052
H           10.73966515938414       -1.55900516808377       10.37187481768456
H           10.66393249158207       -3.27733812710392       10.10532650988800
H            9.68946952974789       -3.59602234360005       12.40493909073713
H            9.74656728851033       -1.87570413216758       12.67098364281769
H           12.20582866374914       -3.64450173683346       12.15131485667195
H           11.73906646539214       -2.98828833646884       13.71709469373410
H           12.25999743239345       -1.91070871092695       12.42541976918772
