77
 energy: -15.756171547260 gnorm: 0.000364853169 xtb: 6.5.0 (97a52f5)
C            0.68788998857714        0.46901627395881        0.35716789547102
C            2.17070506295220        0.18567569305895        0.17401051031644
C            2.74840649195528       -0.69607690404828        1.28247917358961
C            4.23931977278850       -0.97983644609475        1.10219180619565
C            4.82411859320777       -1.85550178391344        2.20992238698112
C            6.30902977824214       -2.12412324109935        2.02601892689889
N            6.86457633574063       -2.95186146131524        3.10453950576705
C            6.95689231703608       -4.35122951489393        3.09454568258004
C            6.56471724007985       -5.29787560728323        2.14494830317960
C            6.79269652330739       -6.62594671675723        2.40576925706652
C            7.40590353637495       -7.03457025774871        3.59522178598494
C            7.79742736016686       -6.11818125660405        4.54052156510743
C            7.57134518802914       -4.76286478098800        4.29214644535015
C            7.85405019303049       -3.57214227971650        5.05861447971342
C            8.46472653631120       -3.37709298023846        6.29494007449491
C            8.59956877978972       -2.08855380289918        6.79313505757780
C            9.27003728575376       -1.85336881173062        8.09212531746969
C            8.69398283046219       -1.03257698448050        9.06190865261035
C            9.32832980597729       -0.80459623479836       10.26043035693199
C           10.57082004477444       -1.37669197652683       10.53235907160522
C           11.26800143548034       -1.10958827950328       11.80862062501516
C           10.60363537408987       -1.13011637201576       13.02119665607599
C           11.28560590033735       -0.88998106607573       14.20087891875895
C           10.53943916967183       -0.95331756150721       15.47012116903914
C           11.22367887920523       -0.72567513281390       16.65758490813629
C           10.55760815361484       -0.78567809908107       17.85251937060717
C            9.21492055305087       -1.07517743560218       17.82157706609152
C            8.61344721989027       -1.28802210991799       16.60369487546102
N            9.23061792495995       -1.23610988755409       15.43548428390025
N           12.59553862868027       -0.60952774506673       14.23603293794682
C           13.24725190367255       -0.57221106851208       13.06719491278156
C           14.69251873936546       -0.24104224701153       13.08408453473414
C           15.23083339851080        0.52630836261149       12.05455915734312
C           16.56400707910264        0.83868191837031       12.06178740347840
C           17.32652748255297        0.37292783113995       13.10485100523869
C           16.71697919509931       -0.37426993816304       14.08396811507046
N           15.43292762773645       -0.69035008935589       14.10456618029541
C           12.62146323117964       -0.82600404393903       11.85544789620927
C           11.14563611029498       -2.19897020666341        9.56382942537345
C           10.50550549344538       -2.43771581940319        8.37115860068219
C            8.11044614358468       -0.99914705204237        6.03506414731578
C            7.52006281969381       -1.17569946426157        4.81226739155306
C            7.39151122210459       -2.47355927725087        4.30813620171860
H            0.28902588695078        1.09861545008350       -0.44115616816875
H            0.49766796742574        0.97867711028916        1.30328946760614
H            0.10804221888484       -0.45549333392403        0.36709708835657
H            2.73252438832042        1.12807676715661        0.13134136495311
H            2.34637771827305       -0.29339041613358       -0.79820360043744
H            2.19593332376236       -1.64231139982680        1.32654089535133
H            2.57920022042149       -0.22127346158411        2.25637763005656
H            4.79020762267777       -0.03278526109008        1.05439630810317
H            4.40825439714345       -1.45693485400597        0.12932076169334
H            4.28392453075935       -2.80819992239359        2.25833160671566
H            4.65746245807867       -1.38407016858726        3.18550597453278
H            6.86819507988227       -1.18504777186023        1.98723395458153
H            6.49555871867701       -2.62385776576950        1.07137415066505
H            6.09123416126537       -4.97985060718045        1.23338153001394
H            6.49502914116622       -7.36787846662771        1.68304014514953
H            7.57226237371704       -8.08457491661531        3.77158594667533
H            8.26838316757256       -6.42442403083821        5.45788322258687
H            8.82230271472704       -4.21881893230152        6.85837629886252
H            7.73682065509806       -0.58245273604600        8.86217072168961
H            8.87626604673863       -0.16330466651871       10.99726064667440
H            9.55349152323875       -1.35248427624136       13.05371272197570
H           12.27627152429431       -0.50686411183309       16.62209436594797
H           11.06944855895197       -0.61300262255732       18.78530197678702
H            8.64516448591986       -1.13465293636141       18.73451673326700
H            7.55879977108192       -1.51666275171310       16.57527522066723
H           14.59225603898057        0.88956874812422       11.26821673288871
H           17.00040974200563        1.43427638148941       11.27638358767566
H           18.38058886751723        0.59207694671220       13.15541732395939
H           17.31178383095837       -0.74135788952313       14.90661135077024
H           13.18869456696765       -0.80450657649753       10.94313474855069
H           12.09939291246781       -2.65541117024463        9.76533452922838
H           10.96266892394705       -3.06966920734137        7.62930903574130
H            8.22804121241533       -0.00594454615750        6.43257902699741
H            7.15905789987161       -0.34019274637118        4.23968266214769
