62
 energy: -12.104567864784 gnorm: 0.000921795685 xtb: 6.5.0 (97a52f5)
C            2.22866232353326       -0.54190670602209        1.05536652735334
C            3.61611622303908        0.06791844496232        0.92791086781646
C            3.79496321036256        0.86763356272232       -0.36341910132936
C            5.18196243409399        1.49730549448514       -0.49212045347746
C            5.35750715625291        2.28972035225793       -1.78656485831150
C            6.73588947808812        2.91654174878549       -1.92404578743022
N            6.86693862338692        3.66834879433679       -3.17863008703466
C            7.22710583741012        3.11859558139528       -4.41839586508123
C            7.65494949658025        1.83665092459057       -4.77144714187520
C            7.92663841580445        1.57281875752619       -6.09059753066766
C            7.77772398410549        2.55973653540896       -7.07067582483351
C            7.35261908168140        3.82399558028123       -6.74271293550225
C            7.07312295434086        4.11017163030116       -5.40505203509309
C            6.58621676377317        5.29817213267626       -4.74364715102470
C            6.23735685593295        6.55857451319286       -5.21923203496534
C            5.76367760138090        7.52171387293182       -4.33482259432413
C            5.39314399117424        8.82783186002339       -4.84821066603054
C            5.08923585607447        9.90356995274892       -4.10108021074670
C            4.68997923141262       11.19666355321865       -4.63580634966948
C            4.16951224503953       11.30197221256359       -5.88402936969104
C            3.73224638316135       12.55542636007675       -6.44867581586881
O            3.27168358334973       12.55827538242364       -7.58664727369011
O            3.84059343606046       13.70551878352033       -5.69288370587013
C            4.38053631992999       13.62145216493630       -4.41604306597185
C            4.49943048299986       14.80002789711435       -3.66935639113098
C            5.04349618756995       14.80791485746462       -2.40580279678258
C            5.14416671019620       16.07023444600907       -1.62311630614272
C            5.47401157236114       13.60063209800706       -1.85831815634672
C            5.36618913249294       12.42945403649625       -2.56464889786355
C            4.81525451259072       12.40737798522972       -3.85008144449812
C            5.63991599800753        7.19020761103796       -2.96272059877302
C            5.97550254135472        5.95285279979808       -2.48315547884698
C            6.45864358909578        4.99029497902934       -3.37518868853702
H            2.11392761887791       -1.10935233154161        1.98143104808512
H            2.01754307547680       -1.21954535674181        0.22598180158808
H            1.45653072254629        0.22967658129233        1.04493178934970
H            4.38053001341267       -0.71901832064827        0.97567673774701
H            3.82342389722233        0.71806531985541        1.78823816281089
H            3.02941825993752        1.65073992424918       -0.42011760089275
H            3.60387887205718        0.21929018375949       -1.22695195978652
H            5.94872584804419        0.71581875979548       -0.43234778177973
H            5.37172019855763        2.15050422910080        0.36788662755504
H            4.59441580470611        3.07434626735789       -1.84909456147165
H            5.16691913542445        1.64036246472643       -2.64900279016971
H            7.51547787421031        2.15059904213600       -1.89143668805785
H            6.93986475567804        3.59196417431125       -1.08874052388650
H            7.76435489731798        1.07976366852313       -4.01565219666557
H            8.25806485477232        0.58852420181612       -6.37801100839766
H            7.99659894675015        2.32220000319812       -8.09866912226347
H            7.22877757410345        4.58589505863975       -7.49181751785763
H            6.33384876292240        6.78035329113128       -6.26602019730759
H            5.39350503227976        8.93392272095352       -5.91791767888184
H            5.14122024485580        9.81124670606381       -3.03313385128038
H            4.03722163174969       10.42623257196437       -6.48890709778786
H            4.15545889437375       15.71780360772510       -4.10939434580003
H            5.10192896513006       16.94410210897884       -2.27421395603161
H            6.08382918202691       16.11416809930986       -1.07115826615116
H            4.32716726949393       16.14626610417195       -0.90472701952794
H            5.89728351609857       13.59865527602497       -0.86840794191421
H            5.72507373600590       11.51719149900067       -2.12373237406807
H            5.25584736603435        7.92567434422290       -2.27919609940384
H            5.87042083729973        5.71091160109908       -1.44071436549402
