62
 energy: -10.957953798271 gnorm: 0.000780406441 xtb: 6.5.0 (97a52f5)
C            1.10416193264548        0.48650983875546       -1.76747414218648
C            2.51847707680358        0.17182673243425       -1.30517687539911
C            3.21728435820388       -0.85954991296422       -2.19271156945933
C            4.64093180331798       -1.17509976301746       -1.73466769384224
C            5.32628923113278       -2.23687199470803       -2.59368600286029
C            6.73952425521600       -2.55076695787597       -2.13028833325556
N            7.37139301348194       -3.59111814505638       -2.94645022235400
C            7.28315539690289       -4.98246509940066       -2.75578584454726
C            6.66489846000689       -5.87483321606982       -1.81641919188194
C            6.90112945780412       -7.16936785662289       -2.11041390132179
S            7.88834391896662       -7.36727135957620       -3.54261189580046
C            7.98842371182444       -5.62327124486369       -3.76983870655818
C            8.52423991000245       -4.62637544202200       -4.61937967436611
S            9.50502536981007       -4.42400775218074       -6.08028292503536
C            9.34009039186572       -2.66229060918436       -5.96775643332770
C            8.58596340782845       -2.27091088239300       -4.88794831895217
S            8.40571834451905       -0.50923603954573       -4.79075429907875
C            9.38683947842468       -0.30832239834015       -6.25274316762540
C            9.90312773595592        0.68396840259313       -7.12021403675060
S            9.94890895080086        2.42359653681836       -7.39641221593036
C           10.93947253613458        2.21763891341841       -8.82520459152168
C           11.21767995372976        0.92380095806788       -9.08283337680622
C           10.63137201170958        0.03951648531822       -8.11591742564422
N           10.59410798707605       -1.34785223189622       -7.88543921572844
C           11.17704607533890       -2.39429637203516       -8.72950562246458
C           10.25708838895331       -2.78393147084640       -9.87510995764284
C           10.85182542024372       -3.86634147111782      -10.77477901558651
C            9.94560148228952       -4.23433379855905      -11.94930833098846
C           10.54301497562841       -5.31731943921421      -12.84929804184484
C            9.64802500622939       -5.66361608722839      -14.02919278655538
C            9.80428772847477       -1.54400789971559       -6.74134394682127
C            8.12974150038212       -3.39089299556797       -4.11125305096461
H            0.61338224684574        1.21645392416508       -1.11987498414056
H            0.48388311617245       -0.41151905012932       -1.77874065880816
H            1.10123360204457        0.89222272800963       -2.78073188646257
H            2.50461651512820       -0.19256720018182       -0.26939500571736
H            3.11932192463012        1.09034856951910       -1.27445434077239
H            3.23410944547741       -0.50359261328529       -3.22993984863979
H            2.62602155490779       -1.78293366428346       -2.21798648130439
H            4.62569352425583       -1.50440208512481       -0.68860261168861
H            5.24095142069516       -0.25702579110304       -1.73548749329806
H            5.34961562965936       -1.91346344304802       -3.64103172748886
H            4.73094009273338       -3.15751989938976       -2.59327897039680
H            6.73962386225563       -2.88158175137106       -1.08768857751136
H            7.36562145219141       -1.65451507912675       -2.16823203028434
H            6.07702102887164       -5.53365274623858       -0.97998286757861
H            6.53233352580832       -8.00293237063705       -1.54311283329161
H           11.27663505824727        3.04596716186666       -9.41924924150308
H           11.81168473080476        0.57725722655308       -9.91272997292655
H           11.39825840089802       -3.26165335396351       -8.10075279335189
H           12.13838079894706       -2.03691822066857       -9.10969968543839
H           10.02067907501186       -1.89359107582672      -10.46960578948524
H            9.29478054118744       -3.12019524871174       -9.47127994608154
H           11.06738719664381       -4.76199860821977      -10.17963840973723
H           11.82625393497054       -3.53415951443683      -11.15300422408987
H            9.73315795632164       -3.33781714294165      -12.54430457045634
H            8.96972116041783       -4.56422757714637      -11.57297494629255
H           10.74421310598088       -6.21556804410665      -12.25066019637112
H           11.52780763477640       -4.98840172115490      -13.20668408843390
H            8.67343428755477       -6.02234569766342      -13.69342093383443
H           10.08419973459499       -6.44049428011778      -14.66104076723948
H            9.47000816599123       -4.79007086005675      -14.65895330487455
