51
 energy: -10.905844265298 gnorm: 0.000602535491 xtb: 6.5.0 (97a52f5)
C            1.14088834017900       -0.33832736830838        0.07584227115829
C            0.27124929940881       -1.24103780784599        0.55428273395228
C           -1.16496983291444       -1.24438319220113        0.30202476982262
C           -1.99222006933497       -2.08630158834379        1.04724823132768
C           -3.35291552597158       -2.11035680637388        0.83188863062678
C           -3.91714471905583       -1.30370557368794       -0.13117732179365
C           -3.12545186198505       -0.45342975346213       -0.90651642665525
C           -3.75074842853037        0.37620700549821       -1.92204947260503
C           -3.10291591291048        1.17409273099089       -2.79324769899809
C           -3.75376230494357        1.99793313953773       -3.80987008681208
C           -3.22821969141439        2.02382480406844       -5.13193525464964
C           -2.08031386968144        1.27662243013617       -5.50255878541595
C           -1.59763360504290        1.30400869471194       -6.77425801978186
C           -2.23153142579601        2.07324396702674       -7.76219061874272
C           -3.34038160250317        2.79626623395436       -7.45978129189931
C           -3.87541106118498        2.79317604181777       -6.14362610451905
C           -5.02137806595200        3.51905002395035       -5.83146952999222
C           -5.54454402702142        3.53045373721499       -4.54128667742849
C           -6.69923960011639        4.29679419769424       -4.22790374910630
C           -7.17889982505429        4.34647663745255       -2.95871970074644
C           -6.53030023962995        3.64551202186145       -1.93072674996526
C           -5.42850418104803        2.89281866826263       -2.19517551698516
C           -4.90402756853011        2.78118503304423       -3.50896131092198
C           -1.75112939229385       -0.43832897472923       -0.67101587662156
C            2.57338457418724       -0.33697880399797        0.33011180270394
C            3.23617924746499       -1.35855099880618        0.99939445733744
C            4.59278402705195       -1.27131606551752        1.19634434403053
N            5.35465173370219       -0.26639305600473        0.79261230483784
C            4.71749272460035        0.70124459749001        0.15185484260443
C            3.36810819931084        0.71725979361269       -0.10186348558638
H            0.76682463947279        0.46857030069212       -0.52730682076200
H            0.64120419430955       -2.02235775501623        1.19263331371866
H           -1.55450605710088       -2.71789079543373        1.80129094075068
H           -3.97759772727237       -2.76339653005028        1.41929193388424
H           -4.98063212417510       -1.32655974027249       -0.29732827653037
H           -4.82134550302929        0.31033036041748       -2.00157307675967
H           -2.02778581040172        1.18006797207935       -2.77617948574808
H           -1.58964599143499        0.66705398944213       -4.76520516908056
H           -0.72291163724897        0.72898625706422       -7.03083827211657
H           -1.83621680989861        2.08354178009829       -8.76479183896349
H           -3.83044855954969        3.38202660677142       -8.21836023606896
H           -5.50677392573308        4.09175867941248       -6.60089231025504
H           -7.18675299061702        4.84630255319810       -5.01475099023317
H           -8.05330146649619        4.93505627401637       -2.73378757053073
H           -6.90757153905028        3.71293030112078       -0.92337985703515
H           -4.92481371849138        2.39596302822446       -1.38614579627841
H           -1.12611324372220        0.20356297070929       -1.26022280162528
H            2.69465230337856       -2.21721165313172        1.35412701374314
H            5.09695365593732       -2.07182241932232        1.71728678515819
H            5.32303892957273        1.52821881611641       -0.18780884264805
H            2.91990804654794        1.54205923481986       -0.62903935176830
