81
 energy: -15.586792555119 gnorm: 0.000275057122 xtb: 6.5.0 (97a52f5)
C            3.12183816706508        1.25052186671890       -4.13189736236843
C            3.73585361280458        1.17000103969863       -2.74311495215881
C            5.19881401394754        1.61502228950394       -2.71400927243741
C            5.80654926882047        1.56851254605522       -1.31326864175813
C            7.24723656081149        2.05971783571538       -1.26628631416037
N            7.76205837913263        2.14368848052979        0.11514729546427
C            8.78538278512150        1.22853867977631        0.51775316391674
C            8.80523324961965       -0.08846417489040        0.05726661933804
C            9.79925956996274       -0.95585717739906        0.44955106630266
C           10.79513907828612       -0.52939626115240        1.30617877414289
C           10.79326363982177        0.77135186111756        1.77006789347233
C            9.80107844688284        1.64143612001300        1.38037482262517
C            7.14481846738465        3.04863465379849        1.02046871517974
C            7.14298528404705        2.78088231142974        2.39742641523678
C            6.49714751353687        3.60141052690038        3.29074172878145
C            5.81715935109620        4.71618249243469        2.81231373426231
C            5.79508467610238        4.99419403141991        1.44022919319417
C            6.46824933834713        4.18393928613122        0.55727958741006
C            4.98121793951074        6.26906591620779        1.19264189383252
C            5.85012396910228        7.36371995228050        0.52169182744911
C            7.07636387414615        7.74731830891805        1.33412448623776
C            3.69038644734387        5.98150185198384        0.37644748345833
C            3.90104664284324        5.46883221755845       -1.03885423239913
C            4.58107538920561        6.68359393896688        2.61322824880501
C            3.82687652778126        7.75058490075838        3.04223914247715
C            3.54530734064148        7.90810286580017        4.40594867987465
C            2.71235862297647        9.01653411281550        4.82492275460331
C            2.30532034194838        9.26527278722981        6.08557286890202
C            1.43682378391634       10.33907649447650        6.45643587366464
C            0.89411245308487       11.29637949096536        5.63222867926709
C            0.05177371403440       12.20482572144006        6.29315665179227
C           -0.07624389025888       11.97659016413056        7.64256344133715
C           -0.86204241587370       12.70110104859946        8.58837639867884
C           -1.66689468254799       13.76363051565610        8.34225586659446
C           -1.83773398409899       14.31872979988271        7.07774927300129
N           -2.00420442404876       14.80575482303154        6.03581842908278
C           -2.41171912518925       14.36583497489698        9.47239732046277
O           -2.25964545637266       13.90902349552343       10.59402034941771
O           -3.24405804889941       15.41590512236822        9.19531793665451
S            0.89560970959401       10.60140556533730        8.09239045574996
C            4.06059251111266        6.96655146237227        5.31198249028402
C            4.81685526982583        5.89836275425295        4.88728977607653
C            5.07412716427492        5.74928660326818        3.52927913663977
H            2.07721682475829        0.93256061078607       -4.13703670882789
H            3.66154087433660        0.61844210820417       -4.83884450433529
H            3.15657873541842        2.26997350340083       -4.51952161318041
H            3.66074485079113        0.14605305728488       -2.35467168482506
H            3.15747407616767        1.78329623391936       -2.03987522319328
H            5.27983173653998        2.63239037534491       -3.11493849764521
H            5.79031981106002        0.99162079922227       -3.39482296411935
H            5.75095707293754        0.54970883786793       -0.91318282251504
H            5.19549725433593        2.16868959964088       -0.62980167187139
H            7.33777975879317        3.04352683326969       -1.73338280158788
H            7.89760400984579        1.40602529887581       -1.85382183685526
H            8.01948698791904       -0.43054526599393       -0.59253300573550
H            9.79924917617807       -1.97164451291474        0.08935953176011
H           11.57250168173388       -1.21036984586614        1.61170276257148
H           11.57161621424898        1.10608713561828        2.43606566469871
H            9.80567667048681        2.66050141353039        1.72560280417656
H            7.64114608057127        1.89587344472875        2.75086107717019
H            6.50460788812437        3.39044032404876        4.34539610815946
H            6.49471185929767        4.44280224620343       -0.48327530848257
H            5.22449074131053        8.24526293173287        0.34350002403777
H            6.15750325894793        7.01227240326417       -0.46860151401296
H            6.79493579936019        8.13333687028355        2.31499523119312
H            7.67356515632446        8.51471863154997        0.83752206390296
H            7.72283245268897        6.88464319175063        1.50244716691824
H            3.09476824279441        6.90095270949756        0.35131052493201
H            3.08810286860319        5.26334865696893        0.94465264323336
H            4.50144366245248        6.15801475414819       -1.63333259935577
H            2.95324845922360        5.33315456215822       -1.56418489693843
H            4.40617505564214        4.50345991020206       -1.04350976892777
H            3.44303224892540        8.45573498758960        2.32791811164831
H            2.37587444416473        9.67698553664993        4.04674440696857
H            2.62101745742946        8.61392144268568        6.87970180694875
H            1.08639362455006       11.34282218603543        4.57204047525003
H           -0.45754625472922       13.00524297563969        5.78370113271238
H           -0.81214628492068       12.35665453359451        9.60696569397412
H           -3.22781370567387       15.62807909087632        8.24190217326761
H            3.85831423141392        7.07730930804084        6.36183103224409
H            5.20328590106919        5.17807182334761        5.58644928827194
