56
 energy: -11.911288449603 gnorm: 0.000308079025 xtb: 6.5.0 (97a52f5)
C            0.77470297918278       -0.64495203368726       -0.04541352882222
C            2.08251764627393       -0.04942452063867        0.45337554209427
C            2.94851107435748       -1.06272317206309        1.20409344458127
C            4.25409288754441       -0.46486937278124        1.72707397676679
C            5.12480707077442       -1.47841493850525        2.45647008023364
O            6.31173411951236       -0.88266562341523        2.96996098547301
C            7.14821944387018       -1.74592555988929        3.67770682485333
C            6.93641751054215       -3.11182501493482        3.82907329918266
C            7.81694622236249       -3.91038440819054        4.54386341101512
O            7.53821194096993       -5.26112326657223        4.63856828320612
C            8.39256492524638       -6.09150622303764        5.33537891762942
O            8.14713107903913       -7.28600890649692        5.41182074384264
C            9.59712680737204       -5.53729580118712        5.98365324754928
C           10.50944639413880       -6.37075709083333        6.71610898291687
C           10.31252396719649       -7.75924646172120        6.85435413688586
C           11.17754948167225       -8.55263486153652        7.54409002334550
C           12.31195384588839       -8.00348202211855        8.14982869310510
C           13.21030008636180       -8.81321922980046        8.86162277129571
N           13.95478253002812       -9.48131513361379        9.45115880162212
C           12.53122576155369       -6.65125510826919        8.03328452554796
C           11.65697307524291       -5.80598691604715        7.32831369210495
C           11.90528944764818       -4.39035198326607        7.21551770203110
C           13.03594900996309       -3.77895004616418        7.81725033942806
C           13.26954473479068       -2.44968330168388        7.70901183041845
C           12.38643829129479       -1.61341940052891        6.98355347951061
C           12.62007134045477       -0.23575549206098        6.86682711025634
C           11.75633970593966        0.55611061892097        6.16223338566291
C           10.63894424836268        0.00692154577249        5.55409799062946
C           10.36027757491512       -1.34983460121063        5.63806194716467
C            9.18564839344345       -1.94512174320010        5.00703075120614
C            8.28236647794751       -1.18925128042587        4.27498981228856
C            8.95565626689845       -3.33432422432014        5.14451846708884
C            9.85186578402970       -4.17266176781164        5.87656456195312
C           11.00761381868474       -3.59002934918586        6.49141294640080
C           11.24795372457599       -2.18410814842692        6.36831664934095
H            0.17153883569583        0.08718568074549       -0.58591491798159
H            0.17170654345522       -1.02035034850012        0.78269993516239
H            0.95562194548558       -1.48372837832406       -0.71914615770988
H            1.87986784953507        0.80858618779300        1.10714494147318
H            2.65443240473249        0.36222025645396       -0.38814908480583
H            3.16985567569633       -1.91356984215866        0.54920497799932
H            2.37812421378067       -1.48534770454380        2.03954979491669
H            4.04003229583865        0.37288871638342        2.40006565632317
H            4.82647016938845       -0.02886878274989        0.90062767763221
H            5.41431625580663       -2.28983492965898        1.77934764300739
H            4.57674570323249       -1.91864324832503        3.29730624834019
H            6.08223775052352       -3.58563020468079        3.38663016195516
H            9.45071531935895       -8.20665732534245        6.39758037013756
H           11.00132990409264       -9.61128928690174        7.63170637163861
H           13.40868148316093       -6.25179872188188        8.50409285427362
H           13.73019753732924       -4.37723984661570        8.37721938412680
H           14.13413120398580       -2.01001653194796        8.17570815091077
H           13.48731951600515        0.19191444820955        7.33949218718998
H           11.94447600417807        1.61417165056023        6.07959524279478
H            9.97976366917892        0.65775206505418        5.01016434791437
H            8.42917805145509       -0.13565901464334        4.14313038688416
