83
 energy: -17.081974531167 gnorm: 0.000986331267 xtb: 6.5.0 (97a52f5)
C            0.78249679621989        0.32633323716190       -0.88144569928748
C            2.01607697782839       -0.34025053394623       -0.29252638438821
C            2.86342363234230       -1.05602822488119       -1.34539564631599
C            4.11580669923922       -1.70813097865134       -0.76224906048575
C            4.95085978875854       -2.43574070814265       -1.80678744701853
O            6.13031843658157       -3.00404500262952       -1.24531993467607
C            6.95669307955358       -3.66943735744824       -2.15622339356804
C            6.67110431022368       -3.84274275717426       -3.50677790769695
C            7.53798575330488       -4.51532750871978       -4.35529428058624
O            7.17473689617436       -4.64954827758801       -5.68554406311582
C            8.00858839427538       -5.31783130593855       -6.56337870860247
O            7.67618156529402       -5.44565186531887       -7.73372871654999
C            9.29115666962056       -5.87070050798106       -6.08573088390852
C           10.19394168856386       -6.55233743823085       -6.96937070990868
C            9.91046214485453       -6.75021857798931       -8.33730686221869
C           10.77012956205471       -7.38957544258788       -9.17599039905254
C           11.99660362823574       -7.87635619782731       -8.70463409856507
N           12.91596593781172       -8.53874596310450       -9.57500504922662
C           13.84483014390807       -9.49965876235216       -9.04728737884761
C           13.45152377941461      -10.42146079583534       -8.08103724064171
C           14.35122376695112      -11.32550995135601       -7.56386378781244
C           15.67135960556165      -11.34104481291627       -7.99498660239466
C           16.65156087801184      -12.31631343870128       -7.44187918611999
C           16.06175112260454      -10.43019457523204       -8.96689047656086
C           15.16528850938525       -9.52418534972193       -9.48623827316562
C           12.94769597527670       -8.22897231842193      -10.97702983193418
C           12.78465263531908       -6.92225485876047      -11.42813613532005
C           12.81051211082279       -6.63407961003810      -12.77378121718622
C           13.00604804879408       -7.63836680627418      -13.71292830409482
C           13.01871947108569       -7.33734495629797      -15.17142823729322
C           13.17396982564843       -8.94102770160388      -13.26410037256906
C           13.14852894665668       -9.23333446464508      -11.91937121486611
C           12.29610292429386       -7.69898752473919       -7.36955005563310
C           11.42652523270139       -7.05739350771530       -6.47854755194423
C           11.76192429162983       -6.90618032493071       -5.08450181438504
C           12.96975062631531       -7.41931685924739       -4.54708630174143
C           13.28151277340761       -7.28047095140516       -3.23536488839824
C           12.40431816889610       -6.61205220946561       -2.34684982145727
C           12.71780496865594       -6.46471059939114       -0.98763924545803
C           11.85643621547096       -5.81773999084733       -0.14361903808148
C           10.66408924398279       -5.29901344024825       -0.62124482381883
C           10.30444852367381       -5.41626298253676       -1.95802171362228
C            9.05467425032255       -4.87403242320133       -2.47953976936544
C            8.15351920663392       -4.19692075575095       -1.66869707058192
C            8.74631725640260       -5.03801689047201       -3.85063177405338
C            9.63266960366095       -5.71987230864356       -4.74110811990297
C           10.86532460932500       -6.24099940521150       -4.23102954969337
C           11.18778985469704       -6.08728541883045       -2.84475856774266
H            0.18408065431464        0.82774985898051       -0.11801681553677
H            0.13842645335687       -0.40281564856233       -1.37636950188187
H            1.05621059192111        1.07415191548994       -1.62796613007013
H            1.72300689387899       -1.05778707682881        0.48544874871939
H            2.63510957082592        0.40372969565128        0.22639027366699
H            3.15042332051210       -0.34679196256618       -2.13087232090756
H            2.25593381779851       -1.81412918480919       -1.85384814172892
H            3.83840163495763       -2.41159644296850        0.03078096689152
H            4.73657413983822       -0.95194011290830       -0.26867807399522
H            5.25173730991247       -1.74462101209239       -2.60215034590770
H            4.36678050617388       -3.24068006480623       -2.26674351227591
H            5.76193518412006       -3.45856484444867       -3.92572086657758
H            8.98107015011328       -6.38545012852081       -8.72940970120423
H           10.51484975889250       -7.53800625312592      -10.21045730806862
H           12.42836125945936      -10.42110891782085       -7.74821929281709
H           14.03455171800050      -12.03167310237401       -6.81555648756290
H           16.21837912200536      -12.89780978984808       -6.62742793095441
H           17.53174229487146      -11.80347888174015       -7.05245488772786
H           16.98088536243735      -13.01415777460371       -8.21243806343135
H           17.08187962854930      -10.43807376948146       -9.31095996201965
H           15.47761783518462       -8.81388711331952      -10.23142113023951
H           12.64659356925471       -6.13643411869695      -10.70647000896943
H           12.67799098361483       -5.61980257328192      -13.10928491061058
H           13.00095622340459       -6.26285559256964      -15.35632628978767
H           12.15036749051492       -7.77552329270603      -15.66469017208532
H           13.91469797245823       -7.74129637184261      -15.64415687962548
H           13.32259016028419       -9.72716402315462      -13.98448914797562
H           13.27411477497925      -10.24621877025621      -11.57929822824160
H           13.24369757282210       -8.06237451573610       -7.02588267898538
H           13.65951877828865       -7.93896730949568       -5.18566260069285
H           14.20414270884191       -7.67974387426676       -2.85071193023052
H           13.64410283750036       -6.86758731845822       -0.61603612448239
H           12.10700361817509       -5.70997305554501        0.89908906544376
H           10.01006072362614       -4.79775800773589        0.06813121173030
H            8.35588084871510       -4.05405115972642       -0.62572321199522
