77
 energy: -16.179075136358 gnorm: 0.000671272692 xtb: 6.5.0 (97a52f5)
C            0.85721822373217       -0.18803912306883       -0.56976347202658
C            2.13717354052326       -0.18136561650655        0.25134684520580
C            2.94975396348513       -1.46725406238940        0.09334009435042
C            4.24055238612673       -1.46331018307589        0.91033664803423
C            5.04975671511006       -2.74289499914892        0.75139890508361
O            6.25388398443710       -2.70957285469706        1.51230034338004
C            7.04798475162410       -3.85529478620385        1.40991368785469
C            6.73087161184572       -4.97422177369779        0.64625893217219
C            7.56818399466339       -6.07821161716080        0.58793809240640
O            7.17782201981188       -7.15250465900791       -0.19450799517328
C            7.98319220651249       -8.27327478896687       -0.27884881162539
O            7.62289459033426       -9.22685147751103       -0.95490260180525
C            9.26856406975232       -8.31324157919550        0.44506452273988
C           10.14993664078800       -9.44227386679780        0.35378841944511
C            9.85063783092979      -10.57482018842841       -0.43258785920142
C           10.69392125655103      -11.63781523783158       -0.53143525940255
C           11.91733334860858      -11.64388102116816        0.15161529871753
N           12.82208160572547      -12.74372743718811        0.04196452973300
C           13.76195018439815      -13.01752556323953        1.09404827461571
C           13.37951983093920      -12.95032961131477        2.43180199945726
C           14.28709312187692      -13.20594863482109        3.43462063193946
C           15.59117336085530      -13.53585711547674        3.12102419016474
C           15.98452966614757      -13.61175300376190        1.79924131968344
C           15.07897171610906      -13.35723691249352        0.79438111783369
C           12.83151588405981      -13.57060785462640       -1.13255638427868
C           12.68697848143620      -13.01593282628524       -2.40203960161021
C           12.69874480056428      -13.81481055422785       -3.52298873662589
C           12.85860912303392      -15.18099025724331       -3.39809136323866
C           13.01008490360480      -15.74559892808401       -2.14682176667197
C           12.99914293061936      -14.94898590334395       -1.02434054210794
C           12.23073419413044      -10.55111841243002        0.93342653976496
C           11.37914139609861       -9.44671701673270        1.06379527204095
C           11.73252456212993       -8.32331694519687        1.89587767001468
C           12.93307732078760       -8.30110592378409        2.65017489292960
C           13.26613522394629       -7.24213278169516        3.42774286779528
C           12.42010876623077       -6.10983225617310        3.51474329542161
C           12.75776826263305       -5.00826754004953        4.31460356375243
C           11.92685738635589       -3.92342998840060        4.38765007170344
C           10.74125828926017       -3.89867496969211        3.67163144314419
C           10.35860957802352       -4.96238362561178        2.86390582839647
C            9.11358116735823       -4.95490456470872        2.10352423461244
C            8.24443410993421       -3.87230822267796        2.12851811568525
C            8.77588104925191       -6.08061818933622        1.31569722919380
C            9.63357665774844       -7.22104395007533        1.23297947423477
C           10.86354088946548       -7.22119417026218        1.96656090617358
C           11.21040228761576       -6.09564924189540        2.78012472349813
H            0.28748982373034        0.73542344193522       -0.44790364685515
H            0.20774996688634       -1.01569816210144       -0.28052485211685
H            1.07200453905171       -0.30397433728428       -1.63325385889099
H            1.90380944988244       -0.02854707729181        1.31316990494678
H            2.76062986843710        0.67766942343087       -0.02897638719511
H            3.18557593811280       -1.62523949610200       -0.96575327459071
H            2.33514710929508       -2.32872120270257        0.38029253288359
H            4.01323741335127       -1.31040823975688        1.97133168769554
H            4.86215240674184       -0.60713666224930        0.62518003329399
H            5.31465540807682       -2.89734284742139       -0.30061938395378
H            4.46200077760251       -3.60778936655255        1.07889283391562
H            5.82130941015446       -5.00763488093428        0.07940829916722
H            8.92326573051843      -10.59752608415902       -0.97114768558654
H           10.42822319141615      -12.49207650962437       -1.12884793765893
H           12.35948645822217      -12.70397588618216        2.66945503171287
H           13.97939140521502      -13.15002917745095        4.46590475467742
H           16.30095676249031      -13.73481708371884        3.90713437913148
H           17.00185555511209      -13.86951376702715        1.55425864621498
H           15.38030802252199      -13.40759114863038       -0.23717766189079
H           12.57744495267178      -11.94968696597960       -2.49446946112718
H           12.58464447960441      -13.37391793594151       -4.49967897333372
H           12.86608713517918      -15.80513461430419       -4.27658141934663
H           13.13555658079611      -16.81144376635394       -2.04917958495891
H           13.11152238428006      -15.38279991424877       -0.04629612837177
H           13.17678237518877      -10.56044997351149        1.43634942578548
H           13.59825975072360       -9.14375348383847        2.61810873070386
H           14.18253710050712       -7.24866648699734        3.99244309245397
H           13.67872407472900       -5.02703459671016        4.87147053199174
H           12.19514184226182       -3.08259872205266        5.00631923412010
H           10.11043270347270       -3.03286044195133        3.75295483095425
H            8.47344949859956       -3.00046379860020        2.70856071881252
