57
 energy: -11.767742047654 gnorm: 0.000664560793 xtb: 6.5.0 (97a52f5)
C            0.94913443566917        0.62639795980835       -0.69089924507024
C            2.15903242797620       -0.17802611548257       -0.24220901160313
C            3.05607156307934       -0.60146027299654       -1.40657339617834
C            4.26781541583074       -1.41784460450631       -0.96094866448727
C            5.15575089182898       -1.85303084232781       -2.11847777594942
O            6.26597820742399       -2.62562871503995       -1.67126613769751
C            7.07052203619831       -3.14929830772380       -2.68692238025015
C            6.90345964956496       -2.89574249335775       -4.04449005428749
C            7.73358044467796       -3.46389740266234       -4.99920373702976
O            7.49614545824595       -3.16417799086004       -6.32996489702547
C            8.29418262882477       -3.71739937241848       -7.31321720280754
O            8.07903488754635       -3.44974448209460       -8.48672893239972
C            9.39793511870209       -4.62600070392327       -6.94542470225913
C           10.24286391738852       -5.22435132213439       -7.93746617803574
C           10.07387325991260       -4.98271711324322       -9.31887119572423
C           10.87217212154791       -5.54711098716036      -10.26283627006658
C           11.91800132507219       -6.40957199062962       -9.88965332147814
N           12.73836466645507       -6.98390988612775      -10.83976602768947
C           12.10510317981517       -6.66329300701761       -8.54005138359859
C           11.29629592585792       -6.09576356379880       -7.54835290115667
C           11.51312230305734       -6.37748395951935       -6.14962020270956
C           12.54836470069739       -7.24251163571342       -5.71341213967547
C           12.75331257768036       -7.50368251269915       -4.39926486050352
C           11.93327927325275       -6.91707733952960       -3.40543783978473
C           12.14170165365125       -7.17675153800624       -2.04308864368335
C           11.33937984321538       -6.60045152915080       -1.09639316863217
C           10.30871480088751       -5.75494949011516       -1.47213396842160
C           10.05689392277374       -5.46529398230513       -2.80722824837556
C            8.97302734506813       -4.58150789024238       -3.22137755796726
C            8.11497701579286       -3.99164501646241       -2.30308254038007
C            8.78022598774512       -4.31960603133461       -4.59810947100467
C            9.61888363664917       -4.90582045172701       -5.59619353962292
C           10.67675961119857       -5.78116627157883       -5.19036609221210
C           10.88518705221792       -6.05209855975768       -3.80018359281573
H            0.31854536829832        0.92145354693640        0.15015869273018
H            0.32867332922147        0.05310860049681       -1.38104595264811
H            1.25195368837540        1.53676875366100       -1.20992866444963
H            1.83455074259307       -1.07072959299664        0.30788869955898
H            2.75059577536835        0.40061776292756        0.47880382168370
H            3.39186986297459        0.28638051795496       -1.95493601983683
H            2.46961632967355       -1.17945297927458       -2.13027496525531
H            3.93830586227887       -2.30556420994770       -0.40987296853257
H            4.86578321919409       -0.84335454779277       -0.24501998710355
H            5.54207860830575       -0.97972571710448       -2.65585284146484
H            4.58233890920642       -2.45821968828213       -2.82948751864390
H            6.12072574820755       -2.24735024162842       -4.38624855751486
H            9.28487328969027       -4.32793332641855       -9.63437228684253
H           10.71665653387785       -5.34076261366515      -11.30707254090178
H           12.54362713376905       -6.92553502262952      -11.82403680234531
H           13.39864933003248       -7.70903438878521      -10.61908284321325
H           12.90817471882193       -7.31978534332228       -8.27152945489534
H           13.19273989401434       -7.70968305352338       -6.43454203306338
H           13.54651418025458       -8.16396070482153       -4.09354249484938
H           12.94188475266653       -7.83441801783974       -1.75036855112957
H           11.50964002430092       -6.80526738496801       -0.05205113356491
H            9.69830025031986       -5.31777294743303       -0.70373701282444
H            8.22493516303913       -4.17776197970170       -1.25317330431693
