52
 energy: -10.762613347426 gnorm: 0.000967773450 xtb: 6.5.0 (97a52f5)
C            1.66880196991696        0.23593117993034       -0.30022848534023
C            3.17079430786510        0.06544468224946       -0.13108318738697
C            3.98018832526854        0.93998751176314       -1.09030893997072
C            5.48965069830222        0.75406444870441       -0.94132171070718
C            6.29605584836144        1.61001624810114       -1.90803220237270
O            7.69624702112825        1.38973645240806       -1.76833341715293
C            8.49712241532300        2.07393276275015       -2.68588554322200
C            8.02617035154947        2.99747147907430       -3.61432798021380
C            8.87843934524995        3.63719997716519       -4.50152629311157
O            8.33062408975304        4.54741371896013       -5.39544046011004
C            9.14752677581955        5.20540457098978       -6.29349019945617
O            8.68869857893042        6.01798019342910       -7.08222026103577
C           10.58474395597723        4.92024824493640       -6.29402565912745
C           11.45957310377437        5.56803244727726       -7.21213634299242
O           11.21486657580286        6.49355904310985       -8.20033299143864
C           12.41691374814373        6.77657723345973       -8.78191454664322
C           13.43122843102448        6.06438206300756       -8.20260415794400
C           12.84316020968468        5.28307342103682       -7.19526419524899
C           13.40241651206140        4.34890312349543       -6.27214709235889
C           14.78597107230421        4.05264215297121       -6.24144217865754
C           15.28741059711401        3.16294204248707       -5.35175261640329
C           14.43905155020334        2.50067356430396       -4.42317132379159
C           14.94856939412992        1.57987715211614       -3.49746719660739
C           14.11499623716074        0.95265683642688       -2.61117678432571
C           12.75473454360722        1.21685296269338       -2.61484332973689
C           12.19392015020057        2.11924685647153       -3.50805432677022
C           10.76126290301961        2.41331587080248       -3.53077877232292
C            9.86726738570509        1.80389198980689       -2.66207839760850
C           10.25906677886412        3.34579190787260       -4.46727089943705
C           11.12324759727164        4.00684349363594       -5.39122804102589
C           12.52804956035515        3.71572116665488       -5.37197672348176
C           13.05041349602904        2.77576185716514       -4.43120563489053
H            1.10495361075918       -0.39495489181369        0.38923530840969
H            1.35485097894154       -0.02219126757588       -1.31243658930905
H            1.36691624245113        1.26892377067471       -0.12265526263892
H            3.44886207051474       -0.98593795517849       -0.27870297651165
H            3.46271510082319        0.29472658028464        0.90179204447315
H            3.72156449373154        1.99386330912768       -0.93540266663424
H            3.68408436586614        0.72170581164721       -2.12294880228701
H            5.75371224794897       -0.29869488688750       -1.09142505779722
H            5.79797174695902        0.98238807481124        0.08501122564778
H            6.09876528678275        2.67394191055538       -1.73486718208815
H            6.01784139216259        1.37976072884788       -2.94281051109386
H            6.98306062771872        3.24136642198834       -3.66219214023837
H           12.53282207642047        7.48041358007097       -9.59763564295203
H           14.47400683239734        6.09486432402634       -8.46587147108832
H           15.43977925825889        4.54721728100570       -6.93795431580473
H           16.34149023152267        2.94626363722901       -5.33755468259747
H           16.00444554698066        1.37129820652559       -3.49109603964628
H           14.51965167747171        0.24697239310820       -1.90408746059310
H           12.12994102911315        0.70652228143894       -1.90525954862092
H           10.20864165327522        1.09060403485787       -1.93826833773530
