55
 energy: -11.396488518972 gnorm: 0.000833079764 xtb: 6.5.0 (97a52f5)
C            0.90481081928905       -0.11863996921391        0.52822313751921
C            2.32199415355708       -0.11154647885737       -0.02406134008998
C            3.02744487205465        1.23074095884188        0.17320355511299
C            4.44334823102661        1.25471497397571       -0.40090812553326
C            5.13034679727195        2.60225195934214       -0.22823242022791
O            6.42664686419967        2.62164540790944       -0.82005987552134
C            7.04261890964793        3.87392548555985       -0.84004313690574
C            6.54721594950292        5.02211946648694       -0.19380769912195
C            7.20569599177400        6.20684132669137       -0.28798866733670
C            8.40074582793921        6.35866314633348       -1.02349589991425
C            8.92008128392480        5.20643676429182       -1.66909028407261
C            8.22354063063123        3.99710453662170       -1.55321657370975
C           10.13633605410979        5.30425638354259       -2.43720701540071
C           10.70104899280587        4.17767159746940       -3.08906950903562
C           11.83725958195077        4.27280018155027       -3.81995748030554
C           12.50845833227115        5.51196615401434       -3.96157864107135
C           13.68338421455033        5.61947774490282       -4.71926151900318
C           14.31855596713610        6.82420605607257       -4.84558822210653
C           13.80862902652611        7.95375200776069       -4.22634494659388
C           12.64862505249316        7.90429383330150       -3.46415946098763
C           12.09719630576282        9.08418801346205       -2.80546573901564
C           12.69905331596845       10.33837554581787       -2.90977809821557
C           12.16544984662587       11.44237388537271       -2.28083464246881
C           11.02099691582825       11.32407385476422       -1.53272191748897
C           10.38065104592527       10.09422102909615       -1.39698091289372
O            9.23233453355739       10.03681491113905       -0.62797428109379
C            8.56840518278984        8.83554057153837       -0.47239085085389
O            7.56050171499490        8.78586454956027        0.21729638119413
C            9.07816481159579        7.61786795566334       -1.13775260343686
C           10.24201095924368        7.70299714738843       -1.89772258165652
C           10.91655403481916        8.96026059683259       -2.03771375727787
C           10.77967908617980        6.54788294985332       -2.55026084477939
C           11.97949167990916        6.65892866074618       -3.32412132452308
H            0.41170597174243       -1.08106298140445        0.37867935653907
H            0.29049105039563        0.64341191012967        0.04615395947969
H            0.89764019302541        0.09181087754355        1.59881399380307
H            2.31027993814358       -0.36039272751428       -1.09329439981061
H            2.91550474505109       -0.90615786925104        0.44666220007421
H            3.05829400072557        1.47781100947186        1.24105292593326
H            2.43196427619170        2.02831855901998       -0.28715688317487
H            4.41869362777852        1.00023761348524       -1.46640583622189
H            5.05367456934496        0.47348123041520        0.06575835495329
H            5.23582812894442        2.84563965393316        0.83495068460270
H            4.53206230347933        3.39254029835104       -0.69553650465962
H            5.64266898776986        4.96170128269837        0.38363649917686
H            6.79976032504652        7.06398044717235        0.21371828587434
H            8.58376256252683        3.11224360455595       -2.03901504039661
H           10.22467004071602        3.21884754499198       -3.00386743707785
H           12.24619212196044        3.40329317634445       -4.30508547120089
H           14.07974316629547        4.74190025454689       -5.20032807333883
H           15.22159712182748        6.89573995156998       -5.42972020914955
H           14.33314409591168        8.88390766214040       -4.34520032675508
H           13.59520134560444       10.45866961548459       -3.48961169378832
H           12.64684999195317       12.40190538956687       -2.37692778375177
H           10.59691444970678       12.17909228892008       -1.03677130429568
