60
 energy: -13.030667291279 gnorm: 0.000590758680 xtb: 6.5.0 (97a52f5)
C            1.26992749322129       -0.09623067885454       -0.85432344456186
C            0.44395561927370        0.83647342984582       -0.34869299404880
C           -0.98369225800453        0.91762117174397       -0.62189175064450
C           -1.68592597531116       -0.20315688447220       -1.02160132692169
C           -3.05636383997929       -0.16128973735246       -1.27018005946749
C           -3.75109752585540        1.00111863846526       -1.12287920579103
C           -3.09465490256881        2.18303963758953       -0.71906325417516
C           -3.80117135430724        3.39764816279658       -0.56869792170825
C           -3.15612790729457        4.53604972288594       -0.19316381802858
C           -1.77919027513577        4.51741124286314        0.04577441302015
C           -1.06889302032377        3.36138081225522       -0.08770523564936
C           -1.69968453335082        2.15463545665367       -0.46615992184300
C            2.69245688196930       -0.19643405528635       -0.58328433028087
C            3.46654358965453       -1.11375456282188       -1.30112620041096
C            4.81604229657911       -1.22979860487254       -1.07732594004932
C            5.44737219429318       -0.43690754947708       -0.12283492607186
C            6.87654076969625       -0.55197796851004        0.12213821874740
N            7.70047008624295       -1.37388441397042       -0.54109718536736
N            8.89864774852579       -1.21607821434944       -0.06891659596240
C            8.84952290105511       -0.29411734790895        0.90138934154920
C            9.99634466882681        0.15462599799112        1.67721678879486
C           11.27386018025950       -0.33242718783532        1.41687560716761
C           12.34824890680301        0.09917309720751        2.15511325330674
C           12.19146819631215        1.02954999255244        3.18359149553820
C           13.35056004310726        1.47201403368110        3.95124432964225
C           13.33890620042072        2.28739781971615        5.04027353480933
C           14.64211304552528        2.55233089711052        5.58883615431902
C           14.95627705083709        3.35059606696534        6.70231328535295
C           16.26700934599510        3.49015844855514        7.08009135364508
C           17.28551405269944        2.85016751346346        6.37208887397870
C           16.99458967111936        2.06639363268772        5.28204800306000
C           15.67041212979909        1.91561718034181        4.88904765235250
S           14.99835434162437        0.99608776914399        3.56487086274734
C           10.90623277581851        1.51403470549356        3.43913511128847
C            9.83114309326108        1.08469466552082        2.69870480275431
O            7.57367639545709        0.15535652012504        1.05354885066077
C            4.68355833166912        0.47389954450508        0.60059684927499
C            3.33379314559936        0.59349962485369        0.37652900004628
H            0.86650743634296       -0.81393185019883       -1.54525528723195
H            0.85876363648052        1.57974029488268        0.30465330639659
H           -1.16866340938371       -1.14128266906118       -1.11697625580401
H           -3.56977574634674       -1.05811448993886       -1.57637601543704
H           -4.80979942402749        1.03068158004804       -1.31498203943708
H           -4.86062014352806        3.41135200733829       -0.75864183962690
H           -3.70474585631606        5.45713064731093       -0.08448180574717
H           -1.27764467583681        5.42652785941087        0.33499636657598
H           -0.00790076183088        3.37525908509186        0.08363655572451
H            2.99042088108045       -1.73147435742748       -2.04318536839498
H            5.40383049331439       -1.93626151214125       -1.63678519099160
H           11.40624818118918       -1.04997044038525        0.62637174424240
H           13.33331714442477       -0.27829889218058        1.94526091729911
H           12.44289831291095        2.70143458998298        5.47002095227609
H           14.16645394358426        3.84067483619327        7.24386080894360
H           16.51522473090937        4.09861359753769        7.93409598496057
H           18.30951460544259        2.97326487697096        6.68427207360899
H           17.77187415404426        1.56913763367444        4.72843227314248
H           10.75865767269234        2.23639228501696        4.22181450603596
H            8.84298271211120        1.46140462557950        2.89882057001151
H            5.17166077488624        1.08450739708611        1.34053418500895
H            2.76447577435080        1.29762431589768        0.95591988735424
