83
 energy: -17.489462610582 gnorm: 0.000365891937 xtb: 6.5.0 (97a52f5)
C            0.15283119822147        0.68453470496305        0.55843114093456
C            1.64355857047253        0.53033509004920        0.30338570793150
C            2.31481658240177        1.84513133751971       -0.09432672686138
C            3.80706689267499        1.68504878749535       -0.37465491480065
C            4.46826235765724        2.96542304284938       -0.89167870644337
C            5.88106118649280        2.74700969764793       -1.35382645124644
C            6.15606974488021        2.62100380214471       -2.70767703618393
C            5.07255249707507        2.70898350616141       -3.73367684862399
O            5.11358600957145        3.57006887554123       -4.59333500381087
C            3.92707875591741        1.75765795605983       -3.69254162157203
C            2.66870306489888        2.26698808847784       -3.86984299793995
C            1.53939271601228        1.46000706932312       -3.77042973010050
C            1.63466250470717        0.11567263843027       -3.52115384980763
C            2.92133178590244       -0.46763575744699       -3.36807063530481
C            3.07163281916699       -1.86717969646106       -3.10651402814529
C            4.34214860837412       -2.37097967781720       -2.92560286322980
C            5.47101372001730       -1.56137310962160       -3.02013037304737
C            5.34416434959000       -0.23535045956258       -3.29077556253002
C            4.07602132147211        0.35524319692606       -3.45739150486601
C            1.88810005443629       -2.74726686919166       -3.09541362582341
C            2.00870462932579       -4.13507866856415       -2.98363326290397
C            0.90804170464154       -4.95991123512261       -3.04322656722651
C           -0.34349734125520       -4.42542545339987       -3.23823784538717
C           -0.50771646055951       -3.04944981706427       -3.35949301664730
C            0.60729666228111       -2.20469556011196       -3.26186945975265
C            0.37446460448699       -0.70456250808577       -3.30445484168697
C           -0.76763269906247       -0.36740180742294       -4.30575576976479
C           -1.95971808191855       -1.23875557533577       -4.09113535072490
C           -1.82410418645606       -2.48274355789753       -3.64195293064853
C            7.49265892443295        2.40830069436924       -3.15463091840980
C            7.79623781782607        2.30023987954375       -4.53906852863225
C            9.05289886574539        2.05330290915109       -4.97183341946048
C           10.12600243344418        1.89597595292437       -4.04965887233448
C           11.43092927214739        1.63176905058207       -4.48328948430911
C           12.44843413743116        1.48529968594992       -3.57684276747896
C           12.20263982591634        1.59855538129728       -2.21851154769791
C           10.92760816962711        1.86165549518880       -1.73087109903284
C           10.64256326941805        1.98742170431342       -0.30224909590758
C           11.63112886744436        1.86608788455023        0.66805605955254
C           11.34061371894265        1.98988088178077        2.01608257147456
C           10.05794751238730        2.23806917730065        2.43158101526356
C            9.02276173484167        2.37003604842910        1.49911381267593
C            7.68377692628974        2.63042638469356        1.90717235534088
C            6.68856277728375        2.75451756828577        1.00183347652078
C            6.92949837421650        2.63116780598505       -0.40022659630931
C            8.24981527002450        2.38238361224569       -0.83240563621264
C            9.31016209005861        2.24540868887230        0.11981803403173
C            8.53159070520867        2.27050955127426       -2.21852097484415
C            9.86704423703271        2.01072131520109       -2.66339479150439
H           -0.31883454465724       -0.26477972779265        0.82146537256721
H           -0.36025191291886        1.07368133095793       -0.32268886914125
H           -0.03705182755547        1.38389185947430        1.37451094097303
H            1.81738394578513       -0.21565126894514       -0.48337449571600
H            2.14094291776002        0.12312153178726        1.19341876563011
H            2.16228524794534        2.59625165897818        0.68983289924693
H            1.81693583993953        2.25357393718750       -0.98191167002577
H            3.95170337155825        0.88334597069719       -1.10605216569493
H            4.32102850520863        1.32903676714999        0.52546992801911
H            4.43928566131376        3.74803162170257       -0.12622664539223
H            3.87825730032305        3.37557077686092       -1.71769853542234
H            2.56096669338591        3.32149049692832       -4.05830556703927
H            0.56865936162610        1.91514912059637       -3.85525290477411
H            4.48274867864825       -3.41498718412409       -2.71526496587298
H            6.45017910987701       -1.99121503823238       -2.88410651249826
H            6.22272957461932        0.37584002220888       -3.37465425485493
H            2.97737239575458       -4.58292880318128       -2.86007661067656
H            1.02841185493165       -6.02748731877709       -2.95450506951290
H           -1.20412349371484       -5.06785840005625       -3.31289216564824
H            0.00587027950030       -0.43363434151032       -2.30199713865442
H           -0.39139299587667       -0.50414722817124       -5.32547282452793
H           -1.05410377377447        0.68776828076825       -4.22704342946476
H           -2.94101452844688       -0.84803629856196       -4.30642842241777
H           -2.68790832901939       -3.10958895506800       -3.50278568082872
H            6.99873677627243        2.43298879763833       -5.24846087119354
H            9.25998699452201        1.97607298143834       -6.02522167996578
H           11.62566305246025        1.54322132179497       -5.53827761094987
H           13.44823653993139        1.27975930027258       -3.92335885894308
H           13.02246947359693        1.47644210772853       -1.53470809493966
H           12.64710987572883        1.67393467616609        0.37567138519175
H           12.12928474733737        1.89130331590491        2.74416502788995
H            9.83519559150225        2.33522041710880        3.48027186620906
H            7.47563313353526        2.72800872146723        2.95879556824991
H            5.69071598173439        2.95417183715877        1.34835437369166
