67
 energy: -11.792454269299 gnorm: 0.000832047843 xtb: 6.5.0 (97a52f5)
C            0.21576582728598        1.24682981709961        0.84500793771812
C            1.64175010907870        0.82584406826006        0.52545531942681
C            2.65282188867512        1.95635762973148        0.71698837473251
C            4.08222633649097        1.54611947551636        0.36906158696797
C            5.08908604733258        2.68272939763391        0.54660447622991
C            6.46763728151552        2.33753525236295        0.07843403467987
C            6.87150122020071        2.87796663024495       -1.14366790602367
O            5.98269233370865        3.70844253300546       -1.86952028237622
C            4.82668639981219        3.18810970216029       -2.47147124365493
C            3.75386406933866        4.06325887102131       -2.60282635371561
C            2.54285580121211        3.66681105121977       -3.15238337372238
O            1.46601824136334        4.52372293924160       -3.25530733402747
C            2.42273813617603        2.35104534066350       -3.61155168389241
C            3.47092716622480        1.46462796230099       -3.53615232006537
C            3.31587152879635        0.06966913667006       -4.05891744236829
C            2.90035971592888       -0.92780430277467       -2.98533332947522
C            2.80325802295623       -2.32287543440578       -3.52794483566535
O            1.96595501632415       -2.59877552133163       -4.34435457335477
C            3.77453439176997       -3.36448012963336       -3.05116254339767
C            4.57825024250099       -3.94518103025980       -4.19880255590478
C            4.68166327553467        1.86468244654601       -2.95280872147249
C            5.79840800724492        0.87328372372341       -2.88938864648561
O            6.65526553556657        0.86085968400549       -3.75683034560662
O            5.74793897949100       -0.02003149511316       -1.84961245736868
C            6.82199454856673       -0.90374847052792       -1.92512424263455
C            8.19250679182090        2.66455574656074       -1.61602414042790
O            8.74285567228030        3.22317653390524       -2.77295676576846
C            7.82625770022728        3.82136484223992       -3.64901247435355
C            9.02621012990059        1.85909632092303       -0.86617999586260
C            8.63363418585038        1.26505254417999        0.33055277514275
O            9.54060803283564        0.44632756225080        0.97908325831937
C            7.33558657179421        1.52393727128732        0.83636814479753
C            6.90477270765096        0.96966711214675        2.14956269314527
O            5.87305230583269        1.35889314822901        2.67063513748350
O            7.68326788095430        0.02401174536429        2.74874778593929
H           -0.49322193668744        0.42855074272017        0.70411072735754
H           -0.10337129152239        2.07182943684520        0.20630201078882
H            0.12715251728810        1.58471422045846        1.87852651584575
H            1.70164013636355        0.46187413076984       -0.50713684129839
H            1.93210570837450       -0.03011421658116        1.14799124184825
H            2.61549439194267        2.31347555480960        1.75260533613017
H            2.35966424051046        2.81691775196088        0.10457348925278
H            4.12170407188300        1.17791910072644       -0.66088252377891
H            4.38647852622719        0.69325108226149        0.98712503848694
H            5.12984723894673        2.98351581341745        1.59913558155968
H            4.74216437926370        3.57206485237690        0.01013097842256
H            3.87347454632712        5.06842841348668       -2.24729625149126
H            1.69583594416133        5.40523244452116       -2.90683192838827
H            1.48727493088941        2.04416513767955       -4.04084881869281
H            4.25983893083454       -0.25142997946812       -4.51273551172635
H            2.58487077844880        0.05651742847070       -4.87439270152143
H            1.92834808946389       -0.64333098534025       -2.57174937730826
H            3.60772395496866       -0.89378328397991       -2.15084980376255
H            3.21080644354198       -4.15445384780571       -2.54177434727913
H            4.44057286661728       -2.93608384445003       -2.29347664773963
H            3.91721391030457       -4.38518617223635       -4.94771856640391
H            5.27130280326720       -4.72042546692686       -3.86521415585533
H            5.16101983138885       -3.17091895352835       -4.70091815484227
H            6.78209615807443       -1.59084170653127       -1.07739871715744
H            7.75518487848324       -0.33747226684326       -1.89993834260276
H            6.76254649556426       -1.46357554019983       -2.86101835063604
H            8.35642015243704        4.15720694301212       -4.54145642978630
H            7.35780599266536        4.67388505851202       -3.15453536660037
H            7.07221768769614        3.08304747573525       -3.92665500438653
H           10.01849217617626        1.69082757056837       -1.23866002109729
H           10.38413367650092        0.41555556595025        0.49528903824306
H            8.49207966726113       -0.09840456476975        2.22367994737454
