68
 energy: -11.619335582522 gnorm: 0.000798750393 xtb: 6.5.0 (97a52f5)
C            1.06013773009918        0.79104442658513       -0.26461049276742
C            2.54129406630045        0.48780029630681       -0.10079980912666
C            2.88392743293423       -0.07135025543476        1.28139767394659
C            4.37216076306800       -0.37094779490888        1.45070231836878
C            4.72544575990304       -0.90426890904179        2.83874030954638
C            6.19593995231704       -1.12968305022758        3.01539647283057
C            6.72424216451864       -2.39001028880446        2.85705507301680
C            8.09986492589917       -2.62745796403040        2.95206794861008
O            8.58424703781088       -3.90606429127453        2.76227858671481
C            8.93288099372663       -1.55694584454126        3.24440380914207
C            8.43795179822052       -0.27280766995014        3.44502544189242
O            9.36314684322000        0.70190592745197        3.84301017773452
C            8.93144750186079        1.81058272652256        4.60327025492337
C            9.25282115390349        3.13063959315315        4.17687153033237
O           10.01337668108535        3.43179541464042        3.04251406284012
C           10.03668317364638        2.42407873866134        2.06730810047097
C            8.79889704590972        4.20246678141099        4.92672319356746
C            8.00168098169684        4.03718735282982        6.05394029789599
O            7.47863565515035        5.12074144536820        6.72962522868190
C            7.70919418509587        2.72898667059526        6.48276181166812
C            6.77166489818733        2.50703648190953        7.62176322405202
O            7.07002131927281        2.85065404015068        8.75238456877052
O            5.60642568059956        1.87458880557988        7.29188088087426
C            8.21678172556104        1.62275937708290        5.78510683649057
C            8.02360470099194        0.24349844226677        6.33698825966854
C            9.34088416497223       -0.45553588683671        6.67213650522368
C            9.14308452577507       -1.83251638163836        7.19085967860696
C            8.14167830617666        0.10465678487128       -0.15005484515415
C            7.45021452938907       -1.10559970824718       -0.63257066662689
C            7.04824881158808       -0.04712647048158        3.27692561453003
C            6.47294854170813        1.32997326799056        3.28982167714304
O            6.79249307595390        2.12516797421184        2.42157765234501
O            5.56195729809284        1.60741097553219        4.27996596804885
C            5.05639833475304        2.89692225701825        4.10340042428715
H            0.83156174588042        1.19062587594471       -1.25456288322995
H            0.72453857468531        1.52340784465095        0.47107016678118
H            0.45650084584647       -0.10695212597214       -0.12503056021154
H            3.13351004275159        1.39418267645702       -0.28114451650192
H            2.86754043574378       -0.22362585822821       -0.87018113199580
H            2.30168366980007       -0.98156026358343        1.46614044225498
H            2.56237258817283        0.63673817273687        2.05393936204841
H            4.95382709727751        0.53689749668274        1.25173059052537
H            4.69407728885752       -1.09082627442004        0.68987590783701
H            4.18261501397839       -1.83568042695172        3.03181395163360
H            4.37820024075159       -0.20230882039585        3.60461184822501
H            6.07957615256511       -3.21943733003254        2.63369779922089
H            9.55602582477795       -3.91897164597181        2.84769185207901
H            9.98856692949776       -1.71678678882605        3.34836338859625
H           10.45994955516159        2.82706065040750        1.14608134208255
H            9.01406519978655        2.08659919462993        1.88945325370072
H           10.64869723927581        1.59385045494109        2.42356241344133
H            9.04340220806344        5.19174307670152        4.59071196560541
H            7.77770277366783        5.95641734189073        6.32310175680991
H            5.56854490170754        1.73239959888567        6.31508646675256
H            7.44822579225859       -0.35969244612644        5.62958377926143
H            7.40384086582424        0.28576227528375        7.23898534112488
H            9.88675422574778        0.14515559258312        7.41076405115028
H            9.98060975528883       -0.46853628724742        5.78003503852743
H            8.55472965577715       -2.45253186261333        6.54442376105376
H           10.04894571487168       -2.34213346009376        7.45554945188044
H            9.13648271401922       -0.07415786466664        0.21233741953273
H            7.59587992763792        0.66440993479533        0.58634071236621
H            7.29123871596584       -1.83378874813420        0.16720771629128
H            8.02217237319596       -1.60286819121924       -1.42014429650677
H            6.47253665726331       -0.86204018665701       -1.05587818791816
H            4.28943088202280        3.09609961923307        4.85487894145495
H            4.62152951585529        2.97820752963013        3.10487967123877
H            5.86978311597006        3.61863798137600        4.20380541890775
