109
 energy: -22.454519694131 gnorm: 0.000588654085 xtb: 6.5.0 (97a52f5)
C            0.36393397222567       -1.09305107123029       -0.16750623272800
C            1.84696356267949       -0.77602777432955       -0.28101050107435
C            2.71459332913502       -2.03048165478591       -0.39324978166354
C            4.20660920432579       -1.71494748302323       -0.50306800646414
C            5.06786722947704       -2.96199706220733       -0.61871163353617
N            6.53050143071020       -2.74970994606622       -0.67288013440403
C            7.29159037578063       -1.56119724612122       -0.68445517823176
C            6.94462442780940       -0.20924745996653       -0.67673718758220
C            7.92882992579503        0.77168218178281       -0.71423208747238
C            7.52193467519533        2.16591342816130       -0.72726229971063
C            8.33990283497237        3.22230400884770       -0.88217375738888
C            7.91733902183675        4.61011367688994       -0.91836389165077
C            6.58880770785798        4.99987015357926       -0.71418730764797
C            6.22316448806364        6.32175317042862       -0.77379730896873
C            7.16365211132000        7.31698350730620       -1.03993186467553
N            6.77448245993274        8.69124996704592       -1.12062677027588
C            5.66646928208185        9.17851684908585       -0.34538787794177
C            5.47147493804518        8.75512162635795        0.96743267489657
C            4.40828877044179        9.22357309625419        1.70663941618968
C            3.52079811091660       10.12445522201742        1.15025281813795
C            3.70188938254925       10.55649357283472       -0.14946509818509
C            4.76415880613234       10.08914049072141       -0.89053184872557
C            7.45914413663331        9.58946099929397       -2.00962269337194
C            7.87919049077414        9.16679398489008       -3.26894302685006
C            8.52165605213943       10.03450953261497       -4.12358188987931
C            8.75561535858592       11.34045121513787       -3.73800195589313
C            8.34344916582055       11.77580979816118       -2.49329658074786
C            7.70090540709918       10.90982139157831       -1.63690131462976
C            8.49053170757435        6.93349848743443       -1.23549177037449
C            8.85928660327436        5.61252662306911       -1.17531709563458
C            9.28927689148295        0.38176615025938       -0.74740910064843
C            9.65551364610469       -0.93660048658586       -0.75399074384074
C            8.65758091809780       -1.91732797735329       -0.72679402070004
C            8.73583100940433       -3.34960895367616       -0.74456382216050
C            9.81564186505540       -4.23913769087047       -0.78826395903761
C            9.56068953207521       -5.58450184629291       -0.81172330818335
C            8.23942874846274       -6.09756306755167       -0.79605477252994
C            8.03900032629401       -7.53512119866122       -0.84961626574651
C            6.84753034886740       -8.14656225118393       -0.97537736833042
C            6.63598837302836       -9.57983566052337       -1.05047567136343
C            7.67530999504124      -10.50751694964388       -0.91879575404064
C            7.43251822210811      -11.85633455303536       -1.00520881521167
C            6.14384433682367      -12.34243314158378       -1.22797255741492
N            5.89392827476517      -13.74726934571957       -1.33166880385013
C            6.69772293115669      -14.68613253242597       -0.59842699908129
C            7.11276977741026      -14.40942028784625        0.70229564716913
C            7.87732395465721      -15.31465725210047        1.40389483829905
C            8.24026411609931      -16.51368116146435        0.82130457878947
C            7.83497440572848      -16.80407858445369       -0.46714258826525
C            7.07077829843557      -15.90015299304154       -1.17067832921899
C            4.84239542325318      -14.23405611886575       -2.18239771734994
C            4.60045958477983      -13.64995122113024       -3.42385050223326
C            3.59764348384585      -14.12325085001513       -4.24017441777748
C            2.81846709705726      -15.18911897848026       -3.83330561357993
C            3.04672516733290      -15.78058168425309       -2.60575821614085
C            4.04903673763476      -15.30893452395296       -1.78768442919892
C            5.10489799584336      -11.42057803306516       -1.35492008369340
C            5.34433270310494      -10.07209009851291       -1.26760879786866
C            7.17275547856659       -5.20803023926849       -0.74053718146417
C            7.41692050941017       -3.83651081534623       -0.71612346009282
H           -0.24397169789792       -0.18893486548874       -0.08822822564681
H            0.15775206805312       -1.70567414324344        0.71212202425772
H            0.01186489041859       -1.65036012050283       -1.03756908641548
H            2.17454487614650       -0.18557814424302        0.58503063870451
H            2.03002324946028       -0.13018038707273       -1.15011396872784
H            2.39776249113825       -2.62138817166259       -1.26125641304256
H            2.53767913605810       -2.67930490935030        0.47320356357608
H            4.51912637166446       -1.13490435043633        0.37287824483343
H            4.37510551347472       -1.07140813145941       -1.37396306727864
H            4.78321214917814       -3.52649231102974       -1.51187656668753
H            4.86664968904335       -3.62411853934591        0.22906306305294
H            5.91656948573807        0.09202800265952       -0.65257079125341
H            6.46753016855653        2.34562568237013       -0.62575332556024
H            9.39133012388160        3.04495042671886       -1.01350846240694
H            5.83992256825308        4.25701365972453       -0.50616733771804
H            5.19536157940208        6.60574379448480       -0.63020089159983
H            6.17127920944634        8.06096532664487        1.39905899650648
H            4.26888813859085        8.88760287421802        2.72131594075044
H            2.68874943575824       10.49033163514323        1.72956997863789
H            3.00969408868014       11.25888556499227       -0.58468681055791
H            4.90507866342009       10.41505762918984       -1.90629893648305
H            7.68374624063650        8.15206404931662       -3.56907434800725
H            8.84040381866597        9.69471492575161       -5.09561040762434
H            9.25780162813953       12.01922422189954       -4.40802226735641
H            8.52518042256141       12.79464442119863       -2.19188098948952
H            7.38222792719977       11.24143762415977       -0.66409911949472
H            9.22728505246345        7.69386296820399       -1.42711781356686
H            9.88770249007252        5.33453690192477       -1.33148070896687
H           10.05414460604658        1.13711305543230       -0.76242478516401
H           10.69039712885817       -1.22929216619650       -0.78182317637471
H           10.82182307148890       -3.85900409807881       -0.80687703345738
H           10.38120176388613       -6.28028609166485       -0.85147799802996
H            8.92666127796701       -8.13885563959942       -0.80688520644432
H            5.96468241262495       -7.53870992805493       -1.04957090044581
H            8.67906185749931      -10.16298630938457       -0.74577179580899
H            8.24233817979192      -12.55908042825582       -0.91575821041478
H            6.81764153058940      -13.47912663093102        1.15536305065741
H            8.19141857376218      -15.08824436989132        2.40986769895882
H            8.83800918627201      -17.22200040853173        1.37155461241454
H            8.11810121705981      -17.73898491672087       -0.92282956914394
H            6.75833206055157      -16.11744151721775       -2.17717944364816
H            5.21700496864274      -12.82665013423841       -3.74002567850812
H            3.42162125324096      -13.66244840302094       -5.19860037331768
H            2.03429749732705      -15.55950561484543       -4.47338404323243
H            2.43883051443294      -16.61186379265837       -2.28747732694364
H            4.22740546157754      -15.76100270942419       -0.82764887151770
H            4.10495039726153      -11.78453292310587       -1.51408965365475
H            4.53031745076915       -9.37469569420530       -1.36939537491284
H            6.15940469101891       -5.55839785331984       -0.71379041218274
