47
 energy: -8.822072972834 gnorm: 0.000640175851 xtb: 6.5.0 (97a52f5)
C            0.58624163433833       -1.16057946943850        0.31220819039615
C            2.05087419399961       -1.40260738121168        0.64957679362042
C            2.91404762567303       -1.66323897378461       -0.58816139131007
C            4.39154682641356       -1.88095000856030       -0.25440585870918
C            5.25690228623517       -2.13383272856954       -1.48309219512458
N            6.68362516011059       -2.27723856907536       -1.13436163958853
C            7.49609310788649       -1.12517673337668       -1.08751857584855
C            6.98100233294857        0.16638349363848       -1.26064750451881
C            7.80072319379151        1.26669042544851       -1.22676598796487
C            9.15619711760919        1.11804502533210       -1.01369742509740
S           10.22361106552555        2.55725442181255       -0.97434425929251
O           11.45274540494140        2.17454945392706       -0.21534860984676
O           10.41280026161342        2.98196310548959       -2.39451649646314
O            9.41129931988381        3.62623357823757       -0.12115800150584
C            9.68914199761042       -0.12628156034836       -0.82897002907520
C            8.87854548429366       -1.25615820882502       -0.85900109292946
C            9.47299601853147       -2.56840130095863       -0.64122294019387
O           10.67558999788609       -2.69973425205634       -0.47900373700216
C            8.57719578490007       -3.71724101485341       -0.61089752474795
C            9.09593882330023       -4.97909533835364       -0.34130046454884
C            8.27864736987975       -6.07221942875120       -0.29022023099023
S            8.97810392931827       -7.68530483743742        0.05773030334733
O            8.25341480439345       -8.23565327275547        1.24283936623164
O            8.88347432340536       -8.47053167508710       -1.21016887200328
O           10.48436229938758       -7.38610310732756        0.47508385922330
C            6.92167234305519       -5.93300351241414       -0.50237403146739
C            6.38669059831037       -4.69759748625692       -0.77069389613661
C            7.19804420839535       -3.55769396828540       -0.84217418369169
H           -0.01348688367555       -0.98080759335992        1.20673993153324
H            0.15430631802258       -2.01732108796877       -0.20716968720295
H            0.47135375608520       -0.29381640330611       -0.34036005172482
H            2.14162933219737       -2.25126250155559        1.33956696464166
H            2.45642795456211       -0.54265074550825        1.19804191385765
H            2.81595140481988       -0.82337131526030       -1.28584586171841
H            2.52672633817306       -2.53412741817103       -1.12978259793792
H            4.49520183482280       -2.71843194541776        0.44450445738122
H            4.77888234901860       -1.01291080253989        0.29053648155319
H            5.14885187450718       -1.32773746069342       -2.21290633728245
H            4.92512778340470       -3.02423106614252       -2.02271612768959
H            5.92658237183187        0.31179821891876       -1.40544026334899
H            7.39527631273438        2.25713464666002       -1.35874023512124
H            9.98168230581569        4.07873078378682        0.51171345700199
H           10.74550956840761       -0.24198936195937       -0.64657887610102
H           10.15454542387747       -5.08512679854050       -0.16520452826008
H           10.77338852437170       -7.96397633301291        1.19123852373879
H            6.28897745775887       -6.80464080183493       -0.45020396107898
H            5.32445845964021       -4.61281869024018       -0.90685676702510
