102
 energy: -18.264715555397 gnorm: 0.000326638007 xtb: 6.5.0 (97a52f5)
C            2.87947476409807       -1.20744093112045       -0.61314005694603
C            3.26132656682788        0.26390991619522       -0.65740574413201
C            3.88013683872205        0.75308313309473        0.65223777541036
C            4.26534176529128        2.22562093434782        0.61776050193325
N            4.89762961567527        2.67244653991849        1.87893892956050
C            4.03291791874896        2.71558328512464        3.07817401703172
C            2.65865738968403        3.33425291114084        2.84644439091475
C            1.85191743487734        3.49449585836005        4.13572088198562
C            0.48193967672849        4.11059081258730        3.89816185343799
C            6.30416693942384        2.72141753551516        2.01044484887268
C            6.93082812689469        2.39342243035585        3.22061240893037
C            8.29616371237619        2.43335671585210        3.34728968522633
C            9.11280025875655        2.81624983860215        2.27685421503454
C           10.55289951081487        2.85639209365411        2.44756039457839
C           11.42012858846048        3.41599682569229        1.58346277867636
C           12.86274174562493        3.45675468042489        1.74609639958974
C           13.62726329388369        4.27905927268874        0.91255080399805
C           14.99347626992226        4.34589116210322        1.04046178228336
C           15.66502334776205        3.58654201374923        2.00176240754520
C           17.13529471678328        3.66147657166645        2.13452138728147
C           17.80971957375857        4.87265143732621        1.96182951703033
C           19.17722307880150        4.94395436081403        2.07273689328468
C           19.94026687634826        3.80584794386568        2.35222897236871
C           21.38531471866795        3.91870052636105        2.44322021815753
C           22.24740830161227        2.88632049158671        2.49531194230740
C           23.69092019917583        3.00258515822568        2.57313803040532
C           24.48554569761302        1.85617271356352        2.45860628298020
C           25.85414703317335        1.92986398766510        2.51909884762507
C           26.50821447050263        3.15498093794179        2.70452488503554
N           27.90928993560698        3.23185533209551        2.76990965678763
C           28.77540428713540        2.04166652127891        2.68063880103640
C           29.03736864891371        1.62438989645202        1.24019952248638
C           29.91556117371463        0.37818524067544        1.12603043652275
C           30.17846403455954       -0.02523451742528       -0.31650710832456
C           28.62582245366069        4.51213433720206        2.91863507115959
C           28.68783948096997        4.97775250703735        4.36676301192317
C           29.40140929446034        6.31951957616112        4.53403354160802
C           29.44778283080709        6.78506258539265        5.98091618459678
C           25.71064541364146        4.30073573662685        2.82398061846916
C           24.34187786322239        4.22752836744400        2.76042429423641
C           19.26415335583333        2.59453996476314        2.53190116511634
C           17.89488470182226        2.52595456476492        2.42796377357655
C           14.90364351008111        2.75640243312547        2.82855951437449
C           13.53554779819715        2.69421624802986        2.70656346258343
C            8.48893092716967        3.14520626854640        1.06748703255986
C            7.12388202286572        3.09673214902596        0.93727728077633
H            2.44160583124436       -1.54689193240678       -1.55474595346693
H            2.15170245745645       -1.40283697057898        0.17692245122272
H            3.74957119201103       -1.83503713308435       -0.41054244422831
H            2.38085472930186        0.87662063852972       -0.89319979463439
H            3.96387042382932        0.44804885532780       -1.48124626877045
H            4.76603152090206        0.15276415262109        0.89204677520265
H            3.18350726645060        0.57153113632646        1.47886928680418
H            3.39379247582778        2.85226767050988        0.41138372666739
H            4.94850617250938        2.40440968948056       -0.21511908774029
H            4.55425577676524        3.29432880910539        3.84633951031682
H            3.93614369734562        1.70107503346685        3.47537059848117
H            2.08702990442563        2.72583451794676        2.13626003347094
H            2.77684069956870        4.31067231302524        2.36144953227602
H            2.42287334272095        4.10539996538107        4.84777091279045
H            1.74780384308883        2.51528563695523        4.62211494169654
H            0.56748385458752        5.09978761068934        3.44410505510359
H           -0.08481662201986        4.22279684876456        4.82540476048820
H           -0.11473108224146        3.49667361761392        3.22062084923223
H            6.32995909445843        2.07479653784553        4.05392749442364
H            8.75662096678408        2.17092063151133        4.28472405524439
H           10.93661104885008        2.42702909600493        3.35520972562966
H           11.02945315987004        3.90533102455192        0.70979957847655
H           13.12811335488383        4.87049356233618        0.16372864540543
H           15.56375593003600        4.97820368253324        0.38194154304994
H           17.24129822137483        5.76265709480066        1.75320578236968
H           19.67839431917816        5.88735138972944        1.93669772630170
H           21.78106285050457        4.91782355231200        2.43628363933219
H           21.85410190860601        1.88719576028994        2.44835071588155
H           24.00524990961150        0.90339026091873        2.31290881679834
H           26.43323777682000        1.03015671116997        2.41462407510410
H           28.32275002372096        1.22552657515319        3.25026699459722
H           29.72012757826124        2.25431466367976        3.19046944447804
H           29.50227352967947        2.45719896097538        0.69899404393995
H           28.08380048486675        1.45447554319485        0.72683123639242
H           29.44207147750880       -0.44986594179271        1.67040920720030
H           30.86515634201556        0.55494772694717        1.64875363760416
H           29.24608264360740       -0.23855724466286       -0.84293943466815
H           30.80673513537462       -0.91630726992234       -0.38607679864617
H           30.68081361569107        0.77432103987609       -0.86455428544475
H           28.14798462161058        5.26391011100114        2.28446561254296
H           29.63665895700074        4.40009509725308        2.51457847065399
H           29.18568502883292        4.21285341640043        4.97480566732516
H           27.67323048204892        5.04370862671454        4.77651156578820
H           28.90412075931444        7.07417045827995        3.90992717116586
H           30.41895958212337        6.24199752821422        4.12804324060989
H           28.44236176415737        6.90337223981859        6.38972528109316
H           29.96074913352274        7.74375198983077        6.08775060075522
H           29.96840588956305        6.06204576046045        6.61188946968726
H           26.17802490036224        5.25709845746324        2.97480471216348
H           23.76143645749334        5.12644255006445        2.86843543506222
H           19.82139268867339        1.70418742238444        2.76347593963248
H           17.39399484416466        1.58168378441509        2.55533836693964
H           15.40240498937201        2.17081521135824        3.58160772084144
H           12.97646498112984        2.03912635474718        3.35097750242701
H            9.08926674965325        3.43105124304144        0.22202977960002
H            6.67240715186262        3.38904956301145        0.00619122558818
