106
 energy: -18.971336692451 gnorm: 0.000570897970 xtb: 6.5.0 (97a52f5)
C            1.25534283936568       -2.00506725897408       -2.70090463253021
C            2.26480838201399       -1.88976415320159       -3.83227989522619
C            2.79889009821074       -0.46766233749069       -4.00531215406828
C            3.80566688027077       -0.34357961776404       -5.14068136008600
N            4.39060116396790        1.00747390339498       -5.24213290402094
C            3.64778345144064        1.96079213147271       -6.08989466508706
C            2.88489200525687        2.99964494008882       -5.27771819793481
C            2.14306390970145        4.01421574174243       -6.14796805900919
C            1.38620031268442        5.04789370427095       -5.32865521570378
C            5.50247968993190        1.40020652761491       -4.47698587883532
C            6.11716838287583        2.64335070969051       -4.67632971498220
C            7.19405506300605        3.03340288178877       -3.92175727096816
C            7.71812182295721        2.20579733716304       -2.92227701858539
C            8.84753651835014        2.66214882296576       -2.13580395500505
C            9.37282320477721        2.02040419674862       -1.07568675482002
C           10.48816758935952        2.49359050803273       -0.27527260574935
C           11.25236679486606        3.60823729691959       -0.62977616567991
C           12.28689323122872        4.03688703464455        0.16605699596576
C           12.61093127364001        3.37603012954802        1.35407566361165
C           11.84856930774762        2.25412074534334        1.72343940281117
C           10.81630482252663        1.82954653383712        0.90994829437591
C           12.15291310812069        1.53197118611719        3.00675629494368
C           12.68266664685787        2.48033596252820        4.09931146377830
C           13.72761011626507        3.42901839654246        3.57897503142998
C           14.71977965250056        3.89836027557497        4.41769360874564
C           15.71084942751117        4.77601840758109        3.96922743734530
C           16.74370134957904        5.29795657506312        4.84688005197702
C           16.74177586886992        5.19436233793800        6.18896500951948
C           17.75312027491844        5.73244920564909        7.07790434192130
C           17.53098457369966        5.72829038120701        8.45960136165100
C           18.45773200536327        6.24125732848381        9.33093556167506
C           19.66455938836459        6.78409508973700        8.87077042711363
N           20.61040946578559        7.31794976558670        9.76147399679055
C           20.40162437857480        7.33596033824719       11.22128453466369
C           19.52958619229146        8.50221887577093       11.66558789758034
C           19.27728763254487        8.52397952912608       13.17328601065052
C           18.40609488106615        9.69298868605080       13.60608596966730
C           21.87357836665386        7.92649617146577        9.30471388881060
C           22.94972237136256        6.88609395798609        9.02701981724444
C           24.25500507939229        7.49525035794477        8.51501206801192
C           25.32302000296329        6.44880952247236        8.23793128465333
C           19.88930752453168        6.77735095555186        7.48755880957973
C           18.96047082682712        6.26798328323211        6.61514013309061
C           15.68434683411605        5.15464894052016        2.62484805770071
C           14.69921512680038        4.70278103428837        1.78116815306795
C           13.69316244031303        3.84608792265093        2.23641934052620
C            7.11162573488843        0.95950827345103       -2.72671514507537
C            6.03657299287606        0.56770936100040       -3.48436937007157
H            0.88186274040807       -3.02530411624903       -2.58579908019879
H            0.39362059804497       -1.35721197089305       -2.87324613855065
H            1.69567380371014       -1.70740282328486       -1.74722463209291
H            1.81524568316830       -2.22534330589894       -4.77647898313254
H            3.10617727565987       -2.57428866317866       -3.65983675335809
H            3.25550713160865       -0.12608703555095       -3.06906776704043
H            1.96370775552629        0.22076893717273       -4.17856628917567
H            3.33446956091273       -0.60046121242224       -6.09408554186230
H            4.61535591653773       -1.06897185821527       -5.02250209389839
H            2.95437014791786        1.40668059795306       -6.72929535297426
H            4.34971692128570        2.44160000318987       -6.77688178398921
H            3.57366473633657        3.52372437022998       -4.60521165713237
H            2.17548012271698        2.49594209329213       -4.61110898013208
H            1.45353006114913        3.48237504556591       -6.81726063286354
H            2.85952024503348        4.51134934665803       -6.81565953922501
H            0.64338693161195        4.57372579024466       -4.68421121625940
H            0.86102941849093        5.76860452254460       -5.95982564092033
H            2.06194116293647        5.60964977571305       -4.68074438680715
H            5.74436095310739        3.30068672027352       -5.44110569814558
H            7.64861535856560        3.99468050762932       -4.09234288945403
H            9.26960152779074        3.60787463542436       -2.42261440564518
H            8.92560026311055        1.09515021003219       -0.76168263939541
H           11.03166331067181        4.13832342131390       -1.53923693883155
H           12.84129238732391        4.91362693077897       -0.11838168163979
H           10.24009682758965        0.96979131016124        1.20313169269754
H           12.89184603992189        0.74762598687443        2.80331527612240
H           11.25249788639122        1.00967020370228        3.35470125617735
H           13.09689479409764        1.90623365520418        4.93802141002269
H           11.85480499755616        3.06430472936168        4.51902942398687
H           14.72683333878656        3.56575406715470        5.43928607308075
H           17.54248993864321        5.83811663279782        4.37236354722582
H           15.90975723074519        4.70638042999342        6.66318572861625
H           16.60867662493260        5.31891909787175        8.83598050084785
H           18.24837693272204        6.23104995175314       10.38538632765453
H           21.37614722903269        7.38191161731239       11.71702019822279
H           19.96950287351041        6.38115458034120       11.53280687293788
H           18.57342043858925        8.47159045698849       11.13021463624883
H           19.99505609885184        9.44470364841081       11.35304093258118
H           20.23957729717555        8.55259692723468       13.70184155496039
H           18.81518224832190        7.57495722787213       13.47671817514773
H           18.87122021369026       10.64730837010220       13.35152696885784
H           18.22358228413538        9.69343921134887       14.68323879636009
H           17.43483104261065        9.66662186418958       13.10823439298796
H           22.21970144768623        8.63481944255473       10.06370562698310
H           21.67649148498042        8.53448395428590        8.41752725181422
H           22.57467734812794        6.15216978196391        8.30422055168122
H           23.14134110747306        6.30797433199129        9.93896488634857
H           24.62349147151348        8.22892120454535        9.24452141204759
H           24.05082271126570        8.07713741579740        7.60619709600816
H           25.56444912090883        5.88264050977084        9.13965949850543
H           26.25042982626821        6.89526079828243        7.87171543773277
H           24.98617476555388        5.73003108627472        7.48830706273821
H           20.80933153711015        7.17601601832568        7.09971406743112
H           19.16945850474981        6.27167624991165        5.56007970922433
H           16.44653101308479        5.81975943678389        2.25538453028399
H           14.71151433086231        5.00215658628473        0.74814201558935
H            7.49585417691911        0.29464387360115       -1.97382009785291
H            5.58834379600390       -0.39236448118101       -3.30212203644984
