88
 energy: -16.709420781252 gnorm: 0.000400565045 xtb: 6.5.0 (97a52f5)
C            2.54675857272667        0.43633185030022        0.04845306375307
C            3.04401449580369        1.31214271570918        1.18774943090607
C            3.85787056469198        0.53294879144770        2.22100646485868
C            4.37373182780511        1.40640267808133        3.35634080894975
N            5.20276267569323        0.64863302973703        4.31477454188435
C            4.54544495240651        0.02721592615447        5.49021043096334
C            3.10397866767235        0.44015895441524        5.77046983900863
C            2.51420700073923       -0.26803303466240        6.99145789233117
C            1.07456138628501        0.13606186682603        7.26802465243548
C            6.53994790725844        0.33295743965950        4.01234745897189
C            7.30251548337248       -0.48265620490280        4.85973607090343
C            8.60150333154653       -0.80571967209043        4.55972072760457
C            9.21600348416838       -0.33565365629097        3.39418455695871
C           10.58710172008992       -0.70810326288359        3.10512757034055
C           11.25871468664192       -0.39122483727734        1.98337282145770
C           12.62684050741454       -0.77091676743056        1.68323034338395
C           13.18737869966965       -0.41396681369097        0.43831152260238
C           14.46383250788677       -0.76147283950708        0.11674524990730
C           15.27733476963752       -1.48635822985609        1.01294007671782
N           16.52359721459755       -1.84002242989292        0.63936992553296
C           17.21162903756626       -2.51753970558029        1.53531749509156
C           18.53373743248083       -3.03333665188814        1.10009101713059
C           18.82442987638925       -4.39795099549152        1.13618085622459
C           20.05527975053387       -4.86408014029856        0.73162827899843
C           21.01442639578834       -3.98148544331564        0.27471188158933
C           20.73672146354072       -2.62967422358048        0.21619812408107
C           19.50677397450576       -2.15887801732714        0.61867509935097
C           16.70592652091536       -2.79532836626593        2.85185889899575
C           17.53189555619851       -3.39554982292386        3.88881661856250
C           18.87532658090202       -3.34323729255789        3.96768484279005
C           19.68475740400803       -3.92203308164127        5.01678754387342
C           19.13629676321653       -4.59703912906810        6.11332707287170
C           19.94045165649764       -5.13359066579479        7.08683078654143
C           21.33545258728466       -5.02686060606121        7.01746431565077
N           22.15701861891645       -5.57684589945302        8.01389174337442
C           21.59477726647939       -6.25191006286939        9.18459537888921
C           23.61619755662938       -5.48976124488373        7.93896688903146
C           21.88209667369296       -4.35243809604959        5.91848663296436
C           21.07826985771758       -3.81508743071382        4.94624812253632
N           15.46585295725727       -2.50421719578631        3.20112222042293
C           14.73816781603007       -1.84599541536351        2.27224421174854
C           13.41555847854699       -1.47663948133288        2.57157118855794
C            8.45979530319536        0.48236574932334        2.54781777495562
C            7.16107165045218        0.80653336812079        2.84850652284628
H            1.96942177979943        1.00455165380820       -0.68425490686987
H            1.90773073185823       -0.36740026199286        0.41858803370384
H            3.37849266172690       -0.03190420006010       -0.48112816722786
H            2.19730955960155        1.80145974353289        1.68712376348891
H            3.65445649340867        2.13484804872293        0.79233448648443
H            4.70127213549745        0.03534195032626        1.72848552896869
H            3.25375953125340       -0.28420861687513        2.63215482226579
H            3.54163289243682        1.88175379014907        3.87986711586628
H            4.95997178501594        2.24311921684267        2.96746702363949
H            5.15556540782235        0.25499842428786        6.36913324115439
H            4.59261835371636       -1.05773577924529        5.35696744655512
H            2.47872775100181        0.23108853416753        4.89496929978008
H            3.05114070356850        1.52481343157830        5.92073176066630
H            3.14060376765464       -0.05997516614738        7.86905063589572
H            2.58039741081337       -1.35461267428457        6.84731717875710
H            0.99354095204551        1.20969510805523        7.44722688765677
H            0.66567335434318       -0.37489741315723        8.14255946178734
H            0.42917225532148       -0.09808081830325        6.41945940537636
H            6.86118476202670       -0.87008020978337        5.76018781853609
H            9.16480002122219       -1.43726304239643        5.22557869344466
H           11.08389223533219       -1.29583600125201        3.85475490472019
H           10.75376262843870        0.17951022711552        1.22616789113657
H           12.58579470746642        0.13807430168128       -0.26342933863103
H           14.87746266467440       -0.49060734102484       -0.83876606766456
H           18.07341764898246       -5.08188017217226        1.49265858573313
H           20.27078295981107       -5.91935616565351        0.77331298954981
H           21.97834788127465       -4.34788195912943       -0.03898718391308
H           21.48366292262903       -1.94221524263227       -0.14617407205941
H           19.28375024518575       -1.10691387673566        0.57359147584004
H           16.99032714742034       -3.85274397606043        4.69586998139922
H           19.40929021361814       -2.82054553995731        3.19631368426770
H           18.06907729355240       -4.69752223524832        6.19718599085397
H           19.49341448603425       -5.64787822872025        7.91884127097598
H           20.93628187488065       -5.57512982290627        9.72625372796164
H           22.37810740125945       -6.57789497244001        9.86602369347925
H           21.02773246897176       -7.12792136986781        8.87464867562780
H           23.93042555888555       -4.44816487327636        7.97597640775585
H           23.97084988838867       -5.93579596333086        7.01145778575270
H           24.08613755684384       -6.01675872189566        8.76702431315499
H           22.94988832712259       -4.25292978869690        5.83867447384743
H           21.51818899831239       -3.30336732842453        4.10721882896537
H           13.02753287626979       -1.75690146417349        3.53160459795596
H            8.90192680285421        0.86830213675668        1.64686650163285
H            6.61068126657456        1.42995100580258        2.16781438552417
