88
 energy: -13.429936267876 gnorm: 0.000659183101 xtb: 6.5.0 (97a52f5)
C            1.88443478819587       -1.54627842383388        1.84973564549521
C            2.53893123960305       -0.82236066094923        0.68346947996591
C            3.12000451723353        0.53560278097999        1.08032991955986
C            3.77082002023313        1.26724365185459       -0.08649637879530
N            4.36784808923569        2.56256542753325        0.30641263480070
C            3.45315462587633        3.58226606778903        0.86330026538044
C            2.17911471258261        3.78682097313073        0.05160354186144
C            1.30556245356962        4.92007572826557        0.59205166275584
C            0.03807201314646        5.12557728337503       -0.22275292537777
C            5.76694213818782        2.75355663586800        0.33221753286838
C            6.36174983925459        3.62050061067441        1.25823591946639
C            7.71916321603215        3.81516078515169        1.27770624958877
C            8.56015364217409        3.15399717453017        0.37542066690206
C            9.98932128308687        3.39236525288546        0.42340955920052
C           10.91548563010021        2.74400273128804       -0.30586139634049
C           12.34474355028971        2.99611953394357       -0.25899663875644
C           12.89324765428363        4.11445432956849        0.40221628964841
C           14.23874473079629        4.31807822352623        0.44064792585212
C           15.14830584245990        3.41872157841752       -0.15842595744938
N           16.50507005319701        3.60345165637524       -0.13526478752143
C           17.01350866439740        4.25946782611812        0.85249351362307
C           16.56395051734156        4.49783763133645        2.13405799146347
C           15.84494220794185        3.66938542634754        2.87692183988774
C           15.33586774302879        3.91359257790682        4.09942025931932
C           14.56307885929745        3.00001896308438        4.79205521474704
C           14.00312637403207        3.23230241815147        6.03937777906003
C           14.13588218206485        4.34523630558891        6.70900950370470
N           12.42926922240102       -0.71068685169155        7.05956286506161
C           11.80006589432575        0.39592181390802        7.19729434162414
C           12.30642873244619        4.14122893240532       13.87573552961730
C           18.11901446120364        3.47211031444912        8.49830390763506
C           18.39219080288168        4.64756417662074        8.15078432318474
C           20.65602190935109        5.83473106506008       -1.08657216496630
C           20.53407816470457        5.93253294459747        0.19347066604645
C           21.12689585457045        6.82788409750051        0.95456233274210
C           20.91578777889395        6.81749094861878        2.26448111045339
C           22.95529460252503        2.61378612862524        8.55914915499860
C           18.55964937369544        0.08072861507473        4.01279272943237
C           17.97966722199529       -0.08032358289712        5.15824924551631
N           15.38642642443125        1.45551164959650       -1.48671074159771
C           14.60809914899698        2.30748755893418       -0.87567788023330
C           13.21310619227252        2.12937152454501       -0.89318810191702
C            7.96794415397784        2.28833710999584       -0.55112787237561
C            6.60993463298238        2.09364724558815       -0.57203531205108
H            1.47170859482105       -2.51276186336318        1.55285187750391
H            1.06877899708413       -0.95664538778895        2.27209830007402
H            2.60048669738194       -1.72751923472322        2.65336041412922
H            1.81355379323519       -0.68165838759099       -0.12876841295265
H            3.33349448966294       -1.44434128956022        0.25042849519572
H            3.85630875754495        0.40548772585634        1.88228599992009
H            2.33121162685947        1.15749292993117        1.51827696662382
H            3.05088318938388        1.44021684709601       -0.89079441179720
H            4.54524530708754        0.63048808758248       -0.51882859222564
H            3.99227135757738        4.53234712393541        0.91269760714620
H            3.21729638718911        3.31224144298417        1.89653888915724
H            1.59527451586775        2.86007656024209        0.02584753345703
H            2.44355750256669        3.98919380078227       -0.99306161193245
H            1.89155007934389        5.84834327014855        0.61961476267987
H            1.05182458036379        4.71290122905122        1.64025200979987
H            0.27182373711022        5.37152835921052       -1.26016248083239
H           -0.57918146443673        5.93367819418603        0.17561408938573
H           -0.57308016266061        4.22143087102636       -0.23605862051992
H            5.74498123994400        4.11476547522217        1.98767854056052
H            8.15492952623666        4.48212920192283        2.00201740518046
H           10.31905184930183        4.14137237496800        1.11979304968179
H           10.59445020383913        1.95934689421144       -0.96591254639004
H           12.23731605092393        4.82864576607531        0.86701092969200
H           14.62705823081835        5.19819065997791        0.92112428026621
H           21.67240655004738        7.70282198300513        6.99777853919617
H           15.52594295969015        4.87216063246210        4.55096824536835
H           14.38296300065390        2.04899739263233        4.31760231188800
H           13.41133390116746        2.44938698780908        6.48656065427542
H            7.58315103307640       -0.37319860912820        3.18360818644502
H           10.93504316657280        0.65283579768547        6.65856084670903
H           10.65027337904623       -4.28664988517662        9.27279631442630
H           13.99573495659223        6.97728214484533       10.47938760792551
H           14.41028765857648        1.80386812886913       10.57476692004146
H           10.70418937918413        4.17514625444433        9.58380098831279
H           16.79434623642580        4.63997649349843       12.71786595163317
H           16.21723745764947        8.46016932631842        6.65776012175930
H           22.22821597309596        8.01040936947475        0.30281643756206
H           22.92377546810786        3.38854950817846        9.26182283601323
H           23.90715582511478        2.17929551984864        8.55194184237451
H           18.52370879633915       -0.61723279966752        3.22739872273572
H           17.41634479926213       -0.92765585922651        5.42271703748655
H           12.81956976949284        1.27701781663366       -1.41556976182859
H            8.58350333330107        1.77924721217152       -1.27099334771145
H            6.18044011834247        1.45793567490285       -1.32544436271970
