112
 energy: -21.267974337645 gnorm: 0.000772549695 xtb: 6.5.0 (97a52f5)
C            2.26568496556852       -1.74051175354828        0.73771924364865
C            3.00076964075383       -0.69495837070042       -0.08742591625768
C            3.64682540014203        0.39240561478193        0.77343114876999
C            4.37065456403489        1.45336328126057       -0.04564648215456
N            5.03985601282043        2.46725196672171        0.79845885850866
C            4.18863017433583        3.28545925919918        1.68832369647486
C            2.98031353482994        3.90121402070290        0.99171011740055
C            2.17431638477061        4.83267362571470        1.89987145579510
C            0.96801642363353        5.44056253934980        1.19956083373707
C            6.45118954578973        2.49900622487497        0.91799420385080
C            7.27517622648909        2.24109550873102       -0.18220087928698
C            8.64305686869007        2.27627712181942       -0.06455451521337
C            9.24891918695275        2.56634093526083        1.15515792426311
C           10.64857508184280        2.60458972238185        1.27347162979621
C           11.86576697093374        2.63992625145204        1.38023774377348
C           13.26614742351425        2.67392213128661        1.50643459156030
C           13.91525485407161        3.89382001279804        1.64233324849076
C           15.29325629837133        3.97901167791771        1.76936952365700
C           15.94154027283748        5.22061996977812        1.90355696025357
C           16.64870783265952        6.20934505445711        2.02138055032228
C           17.57166315094337        7.25268695944349        2.15559978046737
C           17.33907541391795        8.30020580070753        3.04636228657660
F           16.20255551302069        8.35192731050472        3.76762336754354
C           18.27832922266577        9.31092874402540        3.19224877340949
F           18.04735783650703       10.32272140324406        4.04444535725479
C           19.45251133407744        9.28332392156077        2.45446367273064
F           20.35412068140764       10.26818116412005        2.59113080852195
C           19.68987011775698        8.24427259162791        1.56719421488882
F           20.82036438156671        8.22548090953449        0.84303752722036
C           18.75485662200443        7.23082426938216        1.41633894875477
F           19.00242459006253        6.23777384988946        0.53992708157675
C           16.05524547291442        2.79781938453556        1.76144746099015
C           17.45439879703288        2.86772378574939        1.89144346376407
C           18.65327334352585        3.06601276288371        2.01285301133026
C           20.00356454660585        3.40353238589438        2.15716765199318
C           20.37648831266885        4.41361522296376        3.04458793187365
F           19.45504320296655        5.04696516837837        3.79667094259822
C           21.71071114582479        4.77114306877478        3.17238702484074
F           22.06586946707499        5.73571330715494        4.03646477910220
C           22.67930188270348        4.12536462788773        2.41858739918233
F           23.97015665169607        4.46996384291681        2.54676199223062
C           22.31530375304190        3.11881340440948        1.53646248120569
F           23.25594819057493        2.48869722617032        0.81428968407735
C           20.98256284295272        2.75705823668129        1.40313782638671
F           20.65310908958247        1.77240330031131        0.54482042325438
C           15.40922734027601        1.57912772909234        1.62536026149171
C           14.02988368929834        1.49154952315794        1.49679757516105
C           13.42990286892563        0.22712287352934        1.35820185122183
C           12.92543459956139       -0.87994194576472        1.23962766650958
C           12.36751787875705       -2.16245936731008        1.10486311364763
C           12.87416635114798       -3.23845502478792        1.82781777906876
C           12.33951753250412       -4.49608244444838        1.69094204943541
C           11.27074692398059       -4.73755011911475        0.82201312583993
N           10.72647549762205       -6.02757213089688        0.67579076355776
C           11.20479614580078       -7.18292820078283        1.45735564587299
C           12.44339841790686       -7.82109716431525        0.84254862650446
C           12.96256646959338       -9.01944259798831        1.63948480415315
C           14.20459786643450       -9.64565106624690        1.02315275803676
C            9.64859171634055       -6.32636026324129       -0.28476795326882
C            8.27143027748796       -5.99480867891135        0.27404264430384
C            7.13849943356415       -6.26570253804167       -0.71766739169361
C            5.76858905121703       -5.91184506417053       -0.15913695284242
C           10.76545652211481       -3.65061918107773        0.10124372650835
C           11.30186048779640       -2.39382028125046        0.24016492084356
C            8.43335570933069        2.82354640807319        2.25404612636727
C            7.06517187826461        2.79382760499705        2.13941758849548
H            1.81401494616227       -2.51228922586812        0.11152248084072
H            1.46779960491887       -1.28686601781920        1.32749754132979
H            2.94033970071386       -2.23673456530977        1.43668637207647
H            2.31176944285723       -0.22812433853649       -0.80287601602455
H            3.77160817799220       -1.17456278664901       -0.70396833962615
H            4.35288205138686       -0.06215386677803        1.47798585491025
H            2.88232182312264        0.86382089902989        1.40029998584956
H            3.68468033680088        1.95936003034349       -0.72944483160864
H            5.11835765717026        0.97119404174145       -0.67906082305336
H            4.80662000143988        4.08745362874608        2.10082630052028
H            3.87842210559994        2.67028754153349        2.53689967602094
H            2.32384559876788        3.11162709579359        0.61104856685965
H            3.31696055655202        4.45006629271584        0.10475600830310
H            2.83013164016302        5.62755731735294        2.27730353855823
H            1.85268124174326        4.27950463192119        2.79156174839650
H            1.27063839562960        6.02232770937831        0.32763188907043
H            0.40413090483691        6.10393278692075        1.85823763948527
H            0.28430734797456        4.66597856417415        0.84923240533142
H            6.82900497988647        2.05626933036576       -1.14292573610761
H            9.26595557639601        2.08709880820279       -0.92198166366724
H           13.33312580071120        4.79824062072862        1.64931028210965
H           15.99412100801292        0.67645177300309        1.61777481769803
H           13.69979743660461       -3.07037903996654        2.49806691981600
H           12.75860032792145       -5.30717283077268        2.25758075054159
H           10.39621267962105       -7.91610269382999        1.52695652593011
H           11.39194104991424       -6.86396113083387        2.48568919388035
H           13.23441520098469       -7.06954885871480        0.74463079306471
H           12.21998336426002       -8.12849177331419       -0.18536620025506
H           12.16597854958375       -9.76956783473916        1.72548471630371
H           13.17160307239393       -8.70542278202584        2.67010523411886
H           14.00722491375803       -9.99549281715939        0.00876558071231
H           14.56188481214098      -10.49968664328004        1.60175299906621
H           15.02111394291570       -8.92455881336126        0.96329562211561
H            9.70296501792275       -7.38473075485405       -0.55521041045731
H            9.84075239176396       -5.78276743090108       -1.21318258090370
H            8.24565702168042       -4.94569447944995        0.58860827728882
H            8.10510915624253       -6.56726074384055        1.19373697947799
H            7.16325893185690       -7.32142276232049       -1.01643728234427
H            7.32431438796142       -5.70309574299258       -1.64149221009122
H            5.55011367853608       -6.48691323839148        0.74178078317624
H            4.97059662421406       -6.10931043376042       -0.87751225269835
H            5.71500722955721       -4.85625822265979        0.11054575583772
H            9.94100072738404       -3.79556670291239       -0.57247991009348
H           10.90339620847179       -1.56868974067384       -0.32465066653645
H            8.89351988559355        3.04492421066864        3.20184202434357
H            6.45365458817190        2.96631547735456        3.00702510792140
