38
 energy: -8.149506884159 gnorm: 0.000463818475 xtb: 6.5.0 (97a52f5)
C            1.06685124232742        0.19209722426361        0.18393729795535
C            0.32372597018769       -0.91452837211181        0.35398294196589
C           -1.12506088365904       -0.96706700788780        0.39493423653801
C           -1.88228834936410        0.07403822967077       -0.10818147648592
C           -3.27445083077450        0.03643379211450       -0.10627487227576
C           -3.93680854955251       -1.04195031944187        0.39902413621979
C           -3.22443710500502       -2.13588354447705        0.93421207648074
C           -3.89854843374042       -3.25555147830445        1.47210121763640
C           -3.20293784411403       -4.29847096727680        2.00318231178171
C           -1.80615980507652       -4.27182654238634        2.02511587037983
C           -1.12534795686860       -3.20802310632666        1.51073773612487
C           -1.80692488411676       -2.10879459039298        0.94165541028009
C            2.50203932450168        0.14157746661896        0.14560091725329
N            3.20520170931728       -0.99371332294281        0.22145818601257
C            4.47864224965896       -0.63112962829072        0.15312281113454
C            4.57883149365961        0.76230335550239        0.03945078775018
C            5.80171469979710        1.56099724423352       -0.04205785338884
C            5.70980034063391        2.94829820614640       -0.05283840778889
C            6.84289442526901        3.72870266595246       -0.12057000126157
C            8.08780040464778        3.13495452363552       -0.18042142995793
C            8.19578010453633        1.75855928235281       -0.17383860241864
C            7.06417468252681        0.97592683907343       -0.10520174084118
O            3.30583528918488        1.25120455481181        0.03071429003743
H            0.60335095937965        1.15630870801074        0.09978897896051
H            0.85961963243236       -1.83919821573342        0.46058401924617
H           -1.38629740462086        0.92666284880041       -0.53673112691219
H           -3.83033438389773        0.86558289051392       -0.51255978883352
H           -5.01280519871728       -1.06913946277991        0.39720242510626
H           -4.97471962247986       -3.27125144523562        1.45920072768605
H           -3.72779887042978       -5.14590925731773        2.41290660087909
H           -1.26594629595224       -5.09887905932331        2.45627980996400
H           -0.05175891234129       -3.20272114559971        1.55608565821262
H            5.30312425523303       -1.32593729586421        0.19256838071554
H            4.73475704319369        3.40209182062282       -0.00479273253257
H            6.75793056461317        4.80304508282938       -0.12522825154903
H            8.97456956075930        3.74524953642980       -0.23162475221109
H            9.16773796941470        1.29538996110849       -0.22257209011403
H            7.15201340943976       -0.09619947099836       -0.10139370175400
