118
 energy: -22.482346215035 gnorm: 0.000663492980 xtb: 6.5.0 (97a52f5)
C            2.78197118855995        0.80688101697768       -0.70060698629393
C            3.19542327112474       -0.44867690784457        0.05156193701080
C            3.92063603106246       -1.45985918636368       -0.83716978924385
C            4.36058357562398       -2.70868776765357       -0.08535184661705
N            5.07119655317635       -3.66616018264830       -0.95546642814938
C            4.28812155498159       -4.71406060179778       -1.65475672071987
C            2.82272632974568       -4.85764067159144       -1.25512277795027
C            2.08876050146200       -5.92843920836625       -2.06486052179755
C            0.62584432372720       -6.06335064699013       -1.67128502190231
C            6.42874651484589       -3.46934751973286       -1.28280371911923
C            7.16116541204655       -2.39928224886502       -0.75616867141861
C            8.47772916120494       -2.20184335323178       -1.09461550148230
C            9.12907752260369       -3.06385247049212       -1.97200448657305
C           10.47462256170766       -2.85614814916047       -2.32115053720396
C           11.64501578431305       -2.67886425785751       -2.62634800829357
C           12.99564657736636       -2.49739060023026       -2.97672990255433
C           13.52526177983760       -1.21605190712646       -3.05182903076326
C           14.85151896599784       -0.99274068914069       -3.39102744783037
C           15.38406015831566        0.30953821691027       -3.46799599258242
C           16.05500400205983        1.32197028779991       -3.59899230155595
C           17.03161690915259        2.31573602062449       -3.81239738565152
C           17.85869352134789        2.72941536335206       -2.77391343211221
C           18.90483468328566        3.59304821749778       -3.01283282197296
C           19.14364929313003        4.06206846747689       -4.28811183294122
C           20.37281398685590        4.92332578302319       -4.56705759313191
F           20.13773702749313        5.68814485444052       -5.65067650623987
F           20.61577772555338        5.69995010166896       -3.49375219189652
F           21.41301314309813        4.09712235951340       -4.79366548193503
C           18.31781768690996        3.67350693031017       -5.32283947432996
C           17.26999602909846        2.81023058047352       -5.09011393889366
C           15.68567016128398       -2.09276837122103       -3.66495910946296
C           17.03861700564681       -1.88434310079624       -4.00532194195752
C           18.18961111134520       -1.58188811649699       -4.28238904873418
C           19.49748087401215       -1.14985869788088       -4.58721513086566
C           19.80995648045668        0.20489954443310       -4.59812986266679
C           21.08428036318470        0.63674382168044       -4.89306763213646
C           22.07508068556594       -0.27789969591237       -5.18367737377165
C           23.48651130971079        0.20835421317976       -5.51057490237948
F           23.42547352707914        0.98791440224043       -6.60723846724930
F           23.94938753425167        0.91230954327670       -4.45973664591706
F           24.28091857386516       -0.85508394750753       -5.74152223935337
C           21.77845755270739       -1.62606751175108       -5.17679194777739
C           20.50470095976940       -2.06095809231400       -4.88183070055787
C           15.15580769404035       -3.37295381059290       -3.59136006009719
C           13.82803868502032       -3.59837772667974       -3.25313530592835
C           13.33246448265906       -4.91356783829334       -3.18852492481776
C           12.86941691305455       -6.04300972621425       -3.12349054286343
C           12.30852209306711       -7.32902651662387       -3.04145405922178
C           13.00698868266820       -8.38266557292500       -2.45808304022316
C           12.45257850142055       -9.63677578568766       -2.37373498048614
C           11.17022937016379       -9.89597794992656       -2.86896752378938
N           10.59898232149317      -11.17953236429384       -2.78107058503524
C           11.28335947958371      -12.30796671379646       -2.12410014837154
C           12.27146222127090      -13.00199804521715       -3.05111398776445
C           13.02052780296184      -14.15286782970788       -2.37797281214817
C           13.99760050731713      -14.84788497803423       -3.31359122792127
C            9.27288297981248      -11.49304290286265       -3.34327441791102
C            8.14047752170522      -11.08933737360257       -2.40904198165782
C            6.75371684132665      -11.36032878029969       -2.99353201525973
C            5.62890269792768      -10.94671899253554       -2.05735508479477
C           10.47577872307597       -8.83266849282612       -3.45556491295537
C           11.03275690343972       -7.58000940703922       -3.53894379295416
C            8.41037673142527       -4.13448589529752       -2.49632541599989
C            7.09299291626662       -4.33309554601349       -2.16135051768283
H            2.26465899261561        1.51921711239512       -0.05489274989934
H            2.11329108228979        0.56788475482592       -1.52903116832603
H            3.64944829216079        1.31660509053404       -1.12291519703974
H            2.31564043892997       -0.92689119032000        0.50126474213742
H            3.84066817525204       -0.18453468096173        0.89935263307285
H            4.79158935828647       -0.98559960736471       -1.30299022688640
H            3.27717501951080       -1.74496658634942       -1.67698001501379
H            3.50163858835873       -3.19861441769796        0.37706186726780
H            5.00859779654654       -2.44981475221572        0.75578695303629
H            4.79575201151079       -5.66894986412368       -1.49214740329382
H            4.35272121859094       -4.50799570256903       -2.72705595288220
H            2.30736088522777       -3.89873268979090       -1.37762819625773
H            2.75139738773594       -5.09950548936894       -0.18856922556949
H            2.60283038567123       -6.89066604092704       -1.94394448880111
H            2.17082767176896       -5.69411312559386       -3.13414831030525
H            0.52427437572236       -6.32976791179854       -0.61807644604449
H            0.11346727823056       -6.83026310400725       -2.25555584022037
H            0.08989604448034       -5.12454842154417       -1.81943821080331
H            6.68986843023994       -1.70980233647742       -0.08029674069261
H            9.02477734288951       -1.37117535442089       -0.68257198853948
H           12.89061141987296       -0.37399276581132       -2.84115789795241
H           17.69242032141040        2.33804610982150       -1.78477819307016
H           19.56235380948687        3.89352153205264       -2.21507809321906
H           18.51941487661847        4.03700273421706       -6.31594809868569
H           16.64634135915457        2.48050924944819       -5.90347665893612
H           19.03797394101028        0.91801799562708       -4.37154561600227
H           21.31995214264649        1.68866133164456       -4.89940820768455
H           22.55883467950832       -2.33162912665581       -5.40479186816387
H           20.27633476734932       -3.11300535781304       -4.87694855335091
H           15.79164745744106       -4.21435938767472       -3.80115767759653
H           13.99494491291538       -8.19914801276995       -2.07167978743289
H           13.01944254880217      -10.43138280017854       -1.92422031454664
H           10.53008765281957      -13.01902430006967       -1.77258721486596
H           11.77860220857456      -11.94578451896866       -1.21963371907592
H           12.98798918714437      -12.26957539360089       -3.43927309659753
H           11.74103131719257      -13.37145233442963       -3.93622928786022
H           12.29472838334461      -14.87654963187151       -1.98535644656930
H           13.54974494487136      -13.77255121025937       -1.49477147578739
H           13.48318421575657      -15.26690229198530       -4.17969395786334
H           14.52775860944828      -15.66421143580567       -2.81901712424633
H           14.74695408220657      -14.15010171503299       -3.69023280198594
H            9.22518439189847      -12.56510816673910       -3.55539926789735
H            9.17564518620874      -11.00370073585532       -4.31578071702625
H            8.23414098282262      -10.02769550363576       -2.15473263276419
H            8.25127096557696      -11.61651117983742       -1.45447128078550
H            6.66686054786941      -12.42613996021575       -3.24090734133688
H            6.65701158972806      -10.83649918828392       -3.95320422203100
H            5.68773488883429      -11.48411735479201       -1.10972277722877
H            4.64486649121428      -11.14434094880934       -2.48706002749180
H            5.67938780275182       -9.88134921623564       -1.82757026591143
H            9.48731103816176       -8.99371363806929       -3.84524389822786
H           10.48578367637046       -6.77220880252691       -3.99383132207365
H            8.90568715442875       -4.80848019249735       -3.17370502777428
H            6.56511971433476       -5.16645301615521       -2.58804245200098
