118
 energy: -16.290475156838 gnorm: 0.001884776737 xtb: 6.5.0 (97a52f5)
C            3.33549548028417        0.03637181932569        1.25784000493522
C            3.67960753726121       -1.40217289603896        0.90362862065139
C            4.14732277349439       -1.55978390229836       -0.54358893401700
C            4.49429319159129       -2.99665609691070       -0.90687463666534
N            4.97907376479286       -3.12037181337570       -2.29623984240225
C            3.97696222554559       -3.30540612199189       -3.37479950731106
C            2.59292398658871       -3.77869238069480       -2.94219270894276
C            1.63752410123767       -3.97737785889187       -4.12040065073948
C            0.25691806001547       -4.44296599090657       -3.68410853234406
C            6.30327275363843       -2.76148501378251       -2.62482338198102
C            7.23104091786707       -2.40329658997693       -1.63972064935803
C            8.51292917979897       -2.03535679081347       -1.96825067715732
C            8.93291074627823       -2.00891187566671       -3.29477892802557
C           10.24581808939669       -1.63152352710489       -3.62558765889805
C           11.39706140987357       -1.32688374235301       -3.90104900738275
C           12.69015748565348       -1.01685651190395       -4.19685888265490
C           13.34193362571901        0.16025511429583       -4.18679928563852
C           14.68828944683765        0.29634738169164       -4.50607867120313
C           15.29644031536138        1.56767517586529       -4.47666182639764
C           15.92123436285279        2.61749390804516       -4.49288297054206
C           16.72283340958175        3.77555149364633       -4.54831385701504
C           16.21855547644858        5.02127882796793       -4.19281373003275
C           17.01617288755481        6.14321216999866       -4.25676452498309
C           18.32625083605573        6.04675130420676       -4.67991889998468
C           19.21669622719982        7.28695442181990       -4.73167721568081
F           18.44182956610122        8.37886187016852       -4.88168514431310
F           19.90914844898669        7.36118677828166       -3.57951851062103
F           20.06334607582092        7.17225166087761       -5.77340429659699
C           18.83873301020089        4.81392726954159       -5.02793808401751
C           18.04618651848554        3.68892252472151       -4.96612712136367
C           15.44442579396129       -0.78241780235023       -4.85366513332930
C           16.76650030998565       -0.82713808023090       -5.18899489778963
C           17.95522028051881       -0.78299276049232       -5.46581835915021
C           19.28598922860619       -0.68113044373582       -5.75301555384047
C           20.22355138516450        0.09570386469531       -5.17775055093837
C           21.54708742302278        0.10391076704542       -5.56508459660322
C           22.04098312390419       -0.66324176172801       -6.56053161436106
N           23.36690977120876       -0.71500917589384       -6.97665956964003
C           23.53725542295352       -1.15194023423418       -8.11714447631603
C           24.08524712184940        0.17746795916557       -6.52265030595008
C           26.16313373850312        6.14176755932104      -10.19856686532641
C           25.69165621214645        9.69595245213516       -6.63378327669095
C           26.63024420358929       -6.29706074718700       -8.58792439020111
C           27.71645719388540        1.21968950468102       -8.63007034339449
C           27.72753601320245       -0.00056342867650       -9.02337856393865
C           28.32592011595306       -0.58525434372994      -10.05550272022886
C           21.96720648466880       -2.10247485022786       -2.59943649376090
C           21.59633267549710       -2.99505022019478       -3.44851076772478
C           12.88081133462510       -4.44520059070311       -4.86786026516881
C           13.91765494566667       -4.31468317252652       -4.13548686688607
C           13.99415431855961       -4.23482845386946       -2.81353991254518
C           13.02771700583156       -4.26566942843769       -1.91358557826623
C           11.71446280918712       -4.37064763023565       -2.25360774556243
C           11.23808710193115       -5.68101628593746       -2.29514944686921
C            9.86009484300345       -5.82328479246887       -2.53954335919347
C            9.02618168606504       -5.39137383833281       -1.56272402974073
C           10.72968953751646       -9.87234411672002       -5.17488748904448
F           11.28685439005029      -10.65126789862404       -4.32726733219377
F           11.52459870175057       -9.35843037528951       -1.49103476006081
F            8.42040683179550       -9.30980084786862       -2.01241273023182
C            5.44246803329824       -7.18465178113511       -1.24807404706593
C            5.54976139894679       -6.35201650310363       -2.23292275413128
C            8.01951899539688       -2.36841962102358       -4.28160312331487
C            6.73640955405900       -2.73490938712610       -3.95552591007229
H            3.00671678748915        0.13558461269156        2.29420480575111
H            2.53563390001481        0.41814275708500        0.62156236110212
H            4.19648133826555        0.69245864080329        1.12149202066345
H            2.81210784650754       -2.05196393393715        1.07677413273037
H            4.45777882373068       -1.78080664828261        1.57883430048220
H            5.01523811958884       -0.91568046487280       -0.72455929668391
H            3.37609333820089       -1.18621388119499       -1.22670216737930
H            3.63020041146843       -3.64747120186725       -0.75942832035839
H            5.25156111414779       -3.39834567841843       -0.22925601898170
H            4.38443380735641       -4.02732368608517       -4.08769597793738
H            3.89190811192427       -2.35610270972984       -3.91136172438685
H            2.15428898290968       -3.05938704770287       -2.24186547190947
H            2.68187256432234       -4.71918134343866       -2.38647063943432
H            2.07404433283802       -4.69795148551138       -4.82394575729922
H            1.55785527331883       -3.03970311518363       -4.68560891613261
H            0.31359430680524       -5.39062180547960       -3.14622014137891
H           -0.41535163600999       -4.58478351524524       -4.53253544623071
H           -0.20845594891797       -3.71950169872623       -3.01317334728712
H            6.93949573238544       -2.40909299480464       -0.60552928666111
H            9.21495179998325       -1.76577856798586       -1.19753389454103
H           12.79305168416111        1.04507262295089       -3.91470249949151
H           15.19546456094369        5.09830515477133       -3.86680895092537
H           16.62800396957883        7.10843468433851       -3.97952495517235
H           19.86338392593003        4.74725931762636       -5.35156680567787
H           18.44388233335381        2.72697900894470       -5.24079671968740
H           19.91568269950076        0.73466361007912       -4.36652021550283
H           22.23799511371880        0.75038034003015       -5.04939836584950
H           23.48780812540058       -0.13122268184779       -9.58308220500256
H           25.56921950443900        0.29822480505531       -7.47528878225489
H           24.97567343189921        0.51812039041881       -5.02766390840658
H           23.89832470355878        1.94669270008050       -6.82093958954992
H           24.86863706532235        4.71835170615555       -9.94666564562981
H           27.57533070241308        5.90695912874656       -8.88425923149600
H           20.21132700400602        2.62264718429128       -9.02656619529202
H           25.53160718077564        7.79491186016768      -10.99696186016978
H           21.83748429910655        7.91466308166369       -4.59695553657213
H           22.20835698215877       -2.16673730023140       -8.97291170661061
H           26.14239228709542       -3.60897481704416       -4.79864685308634
H           29.04695108853596       -0.23743125359779       -4.51020530078350
H           25.01928740611834       -1.98919448656696       -8.70459610727406
H           25.97506273412514       -3.79187287466968      -12.42276168647791
H           29.92815159103922       -3.55535963621633       -6.97595703434937
H           25.55921019846328        1.66712111387832      -12.84837677524513
H           30.13888666587541       -4.68829777284901      -11.15250117318088
H           32.09443527148676        0.19774659144268       -7.52543895184631
H           22.28824826120246       -5.84906746430233       -7.01087574098971
H           18.19274859758842       -5.22737425431171       -5.65107864200388
H           17.62995103466672       -1.98790575521657       -0.98439338774392
H           13.38084508623509       -4.13015994610070       -0.27748398765652
H           14.19927451229742       -9.33096124737681       -2.81135373258587
H            5.22294914736478       -6.90637434617522       -0.25873954709410
H            5.42249129543998       -5.31215815982030       -2.14578471406123
H            8.33560656378790       -2.35414541006591       -5.31076409505191
H            6.05543634631005       -3.00029626085669       -4.74323697831220
