118
 energy: -22.493520100172 gnorm: 0.000709856426 xtb: 6.5.0 (97a52f5)
C            5.36447585391412       -2.76266921208418        0.95757770504761
C            5.19605736844842       -2.71372975725494       -0.55257512287634
C            5.21601693915343       -1.28849361714042       -1.10466381912526
C            5.08534276270480       -1.23109202251364       -2.62022447384345
N            5.14553185837323        0.15298053678017       -3.13124667091125
C            3.87802305602249        0.90533868951998       -3.29206151619978
C            2.59542227086489        0.08101142117179       -3.33353619839955
C            1.34713934271111        0.93834730368358       -3.55273207676471
C            0.06747887559605        0.11734140579834       -3.58568134559281
C            6.37718752272963        0.83821130089562       -3.18372894181250
C            7.58842921263364        0.17398391428584       -2.96691728794575
C            8.77997511141151        0.85305372669000       -2.99214877075754
C            8.83132043069665        2.22105201147842       -3.23620972366890
C           10.07260611793199        2.88253885558719       -3.23737725297977
C           11.20146129181277        3.35080711258168       -3.19348534469590
C           12.54904225251917        3.74639877612235       -3.08142055325592
C           12.92692565454245        5.05575649608089       -3.34288081879788
C           14.24565731069168        5.47063800014591       -3.22558472677995
C           14.61434874702150        6.80573327499524       -3.47809646986628
C           15.13498633991317        7.90190586951617       -3.62708768967514
C           15.94828369457291        9.04611332923042       -3.70469997591989
C           16.05935785440252        9.91679381624005       -2.62373298812277
C           16.96226655970396       10.95160176317434       -2.64176846315449
C           17.80512872075998       11.15780592404946       -3.73923014212483
N           18.78603649933821       12.16703703807393       -3.72508553328060
C           18.96902913226461       13.07099539294778       -2.57475619452790
C           17.97135635719640       14.22047909751069       -2.58493378963450
C           18.12441061495621       15.16224810980659       -1.39005354686886
C           17.11811673860148       16.30251717554881       -1.40705342575841
C           19.76139023800750       12.34094958780682       -4.81767114095422
C           20.89746350164870       11.33191283339056       -4.73265527154798
C           21.97058717119998       11.52778211098577       -5.80274677010110
C           23.09146856896026       10.50602267606163       -5.69406704862122
C           17.66491944811479       10.29909700104829       -4.83442272442105
C           16.75909268986643        9.26676869210509       -4.81550813566459
C           15.22832000518904        4.54028413691342       -2.83483193169627
C           16.57153302779374        4.95113041260148       -2.70668166053184
C           17.68269094468028        5.45466433192195       -2.63493573336706
C           18.89491639809044        6.17532571296347       -2.59583941225576
C           18.86906768241544        7.56430959413163       -2.61856046760460
C           20.03423991330384        8.29643052944383       -2.60481205334383
C           21.25526425862290        7.65650325905628       -2.56764893937727
C           22.55934320920849        8.45241975626152       -2.58477203746403
F           23.17301150923401        8.23080935601395       -3.76319425884922
F           22.28358694098530        9.76373358718863       -2.44524168760256
F           23.33362130660000        8.02868697537120       -1.56724012308113
C           21.29666408254369        6.27695211396165       -2.54317226977646
C           20.13093801297135        5.54068343775010       -2.55602136393899
C           14.85095211914367        3.23012552835843       -2.57551141867333
C           13.53148591577190        2.81564967682346       -2.69029458782718
C           13.15456064427684        1.48555445709173       -2.41521560407892
C           12.60954984598245        0.40886924002153       -2.22354492009568
C           11.73780413344016       -0.68884200571454       -2.06776067273486
C           11.04098224622043       -0.87337127028717       -0.87801422932650
C           10.06713674104006       -1.84278690102922       -0.77838297516792
C            9.77072824344621       -2.64679038574044       -1.85986046336044
C            8.61426052363122       -3.64184244139076       -1.79906501195624
F            9.03581197727275       -4.82621871168356       -2.28291017016821
F            8.20861537723381       -3.77665410850471       -0.52101621390499
F            7.60957929644436       -3.15554262574363       -2.55454553447024
C           10.47476348405284       -2.49194665926294       -3.03617401307278
C           11.44946038201619       -1.52394278053578       -3.14214816332821
C            7.63165602845151        2.88964989609506       -3.45975541168387
C            6.43410431797970        2.21522369469239       -3.43407319813735
H            5.34218879816296       -3.78556705008183        1.33845436845127
H            4.57397220973822       -2.20464852516724        1.46167495921692
H            6.31593814613697       -2.32246057251216        1.26004023071280
H            4.26009743800456       -3.20507274272152       -0.84760403380909
H            5.99100915264561       -3.29673174890609       -1.03521654094646
H            6.14247512499580       -0.78908847319750       -0.79944708694732
H            4.41388686082797       -0.69901743294558       -0.64599265562256
H            4.15746938106520       -1.70754613092376       -2.94167803618528
H            5.87175862545229       -1.81866676883499       -3.10032999487749
H            3.95478861953601        1.48180872214533       -4.21828159786158
H            3.82003255236829        1.63362953205787       -2.47801969422482
H            2.48425570416352       -0.48353812011387       -2.40100006884688
H            2.66472010344429       -0.66859420241908       -4.13012368398185
H            1.45572737774102        1.50488240190873       -4.48659297284698
H            1.28689768015495        1.69898448478340       -2.76365011937302
H            0.09467437737073       -0.62292858966601       -4.38671930837257
H           -0.81507417518092        0.74042995069538       -3.74355511927365
H           -0.07650753543234       -0.42528542753491       -2.65012271766806
H            7.59737714209967       -0.88408954577976       -2.77534428023690
H            9.70062252507692        0.32977691868741       -2.81222489646535
H           12.17786564035169        5.76831020678329       -3.63862749659957
H           15.44481010496259        9.74815482628805       -1.75587962012588
H           17.03227875153860       11.60027475840701       -1.78796550818274
H           19.99222730049048       13.45749644033977       -2.58778761195827
H           18.89560507487048       12.49148653053238       -1.65095461395680
H           16.95131777593909       13.82133219349172       -2.61413813187960
H           18.07819600360411       14.78488658376950       -3.51848420916120
H           19.14679619855312       15.56117482142482       -1.37183134457650
H           18.02670376756749       14.58652407063828       -0.46067894605515
H           17.22348297054825       16.90779921871554       -2.30869596793059
H           17.23718437970505       16.96699798631981       -0.54895837423393
H           16.09465475067633       15.92472391746812       -1.39061932624714
H           20.15647825562570       13.36004312252255       -4.77549344218908
H           19.24265584689976       12.27474635106302       -5.77733928891012
H           20.49432630032755       10.31549520974130       -4.79857663132764
H           21.35554734746114       11.38735108806248       -3.73833979691611
H           22.37692173659924       12.54464727499307       -5.72663460297386
H           21.50744327753191       11.47843761564999       -6.79662790855243
H           23.56682152950589       10.54762516620520       -4.71259818056980
H           23.86678285247156       10.66244396874399       -6.44652331952807
H           22.71249691354260        9.48995920743088       -5.81480759687213
H           18.29068509730842       10.43163997487911       -5.69781407057693
H           16.68978041855321        8.59114235043578       -5.65084818547144
H           17.91934985584573        8.06473183509027       -2.66800830853296
H           20.00187355080683        9.37164274832118       -2.63344840413559
H           22.25477484561196        5.78649123426392       -2.51859275446618
H           20.16642676311952        4.46486445510561       -2.54293793369575
H           15.59899431323035        2.51914203443921       -2.27416090289919
H           11.24285350897017       -0.21910285511573       -0.04716738695339
H            9.50733213468202       -1.96671523885608        0.13246839118512
H           10.23045476124021       -3.11969915332744       -3.87600213410820
H           11.97050593396684       -1.37694824067993       -4.07280579858967
H            7.65472913902081        3.94943573709742       -3.64728399814018
H            5.52380818694687        2.76314145174381       -3.59576254905779
