116
 energy: -17.256322788603 gnorm: 0.007922261512 xtb: 6.5.0 (97a52f5)
C            1.87037229224018       -1.82261956883505       -0.41479453956155
C            2.97814722176963       -0.78686421235128       -0.52889755771936
C            3.50019188055195       -0.32621498245523        0.83243196976401
C            4.61002928170159        0.71262015341562        0.72378871121409
N            5.17531559282339        1.11571926276905        2.02829292547738
C            4.22562733519720        1.53883832377506        3.08071703839544
C            3.34832243585921        2.71016745646006        2.65518821353916
C            2.42654643095630        3.20430849846351        3.77063591223312
C            1.53822732700784        4.35896929108340        3.33390187223242
C            6.57278771469765        1.26808093909957        2.20103199151073
C            7.40178978100679        1.61042438637625        1.12719976191037
C            8.75440822788352        1.77585592888614        1.30217470555580
C            9.34036617817210        1.60480656803991        2.55415795885606
C           10.72355753177339        1.77482952234605        2.73755505578926
C           11.93012966172354        1.86865915919286        2.91249292644984
C           13.32191471265289        1.86514315498354        3.13605327400749
C           13.95890025507615        3.09971276308879        3.24038024701601
C           15.27335800774341        3.29382001451241        3.45102984158046
C           15.97611701787120        4.45682648596904        3.55458574256016
C           16.60152538837211        5.50342632119340        3.64264821443607
C           17.29383957981749        6.67328462615969        3.73134020714668
C           17.17556364266467        7.81080532174288        3.01268274619507
C           17.96270387499979        8.92231195079633        3.21184433245703
C           18.94053838761418        8.98801965926870        4.14917900956331
N           19.75719975218597       10.01279024514002        4.40624654947460
O           19.83693351899111       11.11985434605419        3.80213546291250
O           24.59896249377794        9.74412812408805        0.82806950863541
C           19.77500857644526        5.88160884263234        1.07790115181118
C           20.03281039893455        5.05846031399883        2.10334413256279
C           16.81977895308714        2.58678809044981        0.23390617400246
C           17.87910079643792        2.38059675374254        1.05195545099210
C           17.99479382259577        1.09571357684159        1.61844839659025
C           18.19504304669197        0.07288754559100        0.75406026692509
C           21.45591668989239        1.44031456683444        3.95408968872295
C           21.48770032480959        1.56862669225231        2.71753452153340
C           25.38775554568438        1.39795090899268        4.70480282214687
N           25.09863685879244        2.26826628505669        3.79525669403277
C           24.82007480914092        3.06759356141011        2.94288672753720
C           24.49440926210718        3.98813762341775        1.98383108760580
C           24.06569368615854        5.23486397078383        2.10603832228743
C           23.78398359833269        6.04454995503449        1.15805896245195
C           25.65139349863936       -0.70178385986849        1.21325590979887
C           26.86978880359085       -0.81036398264003        0.65297333263013
C           27.66813229023832       -1.90739820507270        0.83707884360176
C           33.20199505450094       -3.55830640433523       -0.37292216170943
C           20.79787491850123       -3.60723724347962        3.05388984284612
C           20.28335516546592       -3.09373304192770        4.12829046020747
C           15.29377543937390        0.50054299212830        3.48461151681569
C           13.97460647636078        0.61599965581427        3.24432094383078
C           13.20406986778125       -0.55628850046841        3.09710457188391
C           12.42929338199385       -1.48912603689053        2.94244723280779
C           11.45511471167976       -2.48809531179625        2.75112231289163
C           11.80079544981603       -3.83521953394058        2.69710282276155
C           10.83561516766903       -4.79875182948747        2.50653940726110
C            9.50777973036210       -4.44010099483013        2.36495362933132
N            8.48387183099310       -5.46796886325985        2.16394259591856
O            8.83544709484830       -6.66012252059898        2.13134466550399
O            7.29932777251533       -5.11335344055165        2.03272964406911
C            9.15409566062505       -3.10457944030938        2.41595366743068
C           10.11532564183195       -2.13809978887073        2.60700895869165
C            8.52166867167381        1.25054118914312        3.62397065641794
C            7.16855369081823        1.08677728258419        3.45368604512213
H            1.49912444212558       -2.13478117692848       -1.39258266508268
H            1.02235747230710       -1.43236934705309        0.14917987468718
H            2.21901417578836       -2.71575231741659        0.10534295029600
H            2.62284219313411        0.08490866768071       -1.09318428544432
H            3.81105579060115       -1.18820043771235       -1.12002631390610
H            3.86674011054290       -1.18903333975996        1.40052075437700
H            2.66858107378262        0.07283997739357        1.42292837774834
H            4.25809036244759        1.60757889241491        0.20365310040330
H            5.41879822543465        0.30356571785402        0.11235048172420
H            4.79111928853202        1.82235222739035        3.97173140280227
H            3.61818318586355        0.67859845164274        3.37495405084436
H            2.74732929882247        2.42982330762933        1.78313419574934
H            3.98592601342207        3.53243515395253        2.30944788247738
H            3.03221097738681        3.50062658330057        4.63648176015139
H            1.81057490502800        2.36869212746141        4.12680569539299
H            2.13357313002084        5.21197177601076        3.00643763122370
H            0.88674963984392        4.70243025752211        4.13956798192616
H            0.90123819024853        4.07075877011405        2.49707456203865
H            6.96446717880142        1.78373334000069        0.16013858004340
H            9.38010590018366        2.04774663717728        0.46926633875246
H           13.34249994620181        3.97672630412625        3.13736036359402
H           16.42266735982812        7.83865544741960        2.24141036942902
H           17.80225318486940        9.78860864003888        2.59221708971982
H           21.70446070715821        8.91340510410111        0.36250431923562
H           20.79298715471400        2.06303903953841       -0.11141669102473
H           18.62437609489888        3.12754644077567        3.87689640052326
H           21.94371469586408        4.65399239407915        4.39186898167151
H           26.20176533784608        1.43545843824055       -0.18257693316142
H           27.38039491923177        3.57634666313174        0.60177518543767
H           25.86346319858867        5.98421805255401        5.32730067289377
H           20.71391233884031        4.29950389268761        1.85266435387343
H           27.59951505550712        5.24267903098954       -3.04337901648968
H           27.38893933022878        5.30016033584277        2.59773851754509
H           22.88658533406696        5.35884996879803       -2.08162731805491
H           27.53935290380069        9.17674416309127        1.05232171328274
H           24.09538482608256        9.03641510730640        3.80307940990504
H           23.07196475457506       -0.70799100040151       -3.04804267508018
H           25.04123924097306       -1.98122586474209        4.26613800187823
H           27.79645801920458       -0.65375403266242        1.75829937163697
H           28.03509035612551       -0.56763080229238       -0.19100350294268
H           26.59915349621824       -1.88714608801160       -0.31191440666074
H           27.40293155405696       -3.50358232948094        1.87721000223967
H           31.36415125088964       -3.15447050642043        0.01300048124479
H           33.11620517129454       -5.37818342048462       -0.90913705856036
H           33.97616110274695       -2.06301141601393        0.54190637053803
H           20.41467422839542       -4.45221553342848        2.55877097540595
H           19.42804326756781       -3.46668198317495        4.61279234342020
H           15.78164272777450       -0.42512055175249        3.56582279730877
H           12.83478662079339       -4.11445354804884        2.80631748581539
H           11.10025720301627       -5.84126443760998        2.46388617205041
H            8.11781297298354       -2.83607599001192        2.30420833793004
H            9.84060376795900       -1.09795615956216        2.64742361948717
H            8.96848048943334        1.10361548723796        4.59250652476495
H            6.56038767054837        0.77928942451177        4.28565401764539
