76
 energy: -15.106713859485 gnorm: 0.000970630384 xtb: 6.5.0 (97a52f5)
C            1.86511076526760       -1.55136096565327       -0.47044183685830
C            2.81347472842756       -0.36741504772128       -0.36207922850688
C            3.31855505457782       -0.14266476912404        1.06392940775009
C            4.26640267474867        1.04573499561891        1.17672662782300
N            4.81931564149674        1.23921454802169        2.53592038127150
C            3.84748420479221        1.28218290584114        3.65160772218344
C            2.76564525311155        2.33992132112814        3.47054534658892
C            1.79259099669051        2.40479699936599        4.64832206134997
C            0.71301931649391        3.45923166360741        4.46242163506065
C            6.20233690345531        1.39278206641271        2.75140872312889
C            7.05150088971231        1.87851043881424        1.73197813754042
C            8.39190401966255        2.01006342740298        1.93301571301410
C            8.98909369459752        1.67117434733260        3.16290642735785
N           10.32310926925549        1.80980348543955        3.32050441763654
C           10.82322635269135        1.46765891362804        4.49699376042403
C           12.25266651682294        1.61712758124452        4.70369106999070
C           13.06784188334673        2.11175769070543        3.68432287141513
C           14.42017895888424        2.26003878285889        3.86833542198315
C           14.99541968763485        1.91693380266664        5.08079473797169
C           14.21137579590474        1.42738690946541        6.09779995215409
C           12.84044053841131        1.27033503199838        5.93012204239102
C           12.02284995603796        0.73550633919151        7.02302706021975
O           12.54951198875543        0.38863820214325        8.07668714023726
C           10.58921667471068        0.61084520400671        6.81646789569724
C            9.73309441540348        0.10832034616147        7.89510527613645
C            9.66752488626818        0.78650260797894        9.15535895596727
C           10.39952840027876        1.96738394626811        9.40386314603941
C           10.31438969761310        2.61924774952513       10.59803271360831
C            9.48415317471412        2.13218869111237       11.61431302840722
C            8.74817541798870        1.00561042752052       11.41604016919916
C            8.80913795092967        0.30439246008038       10.18464124742380
C            8.03245892419911       -0.83211765986779        9.96398181057614
C            8.07261630431649       -1.51798143579349        8.75094671976385
C            7.28528989862416       -2.67847613443939        8.53899190809588
C            7.34571230653960       -3.35692414593414        7.36164009119571
C            8.19465353290228       -2.91848889992562        6.33869755239105
C            8.96297716784326       -1.80544031319113        6.50837871899995
C            8.92262620781866       -1.05773282140397        7.70499668279080
C           10.01811341689664        0.97421607057877        5.56378490441216
O            8.66851950966831        0.85207739826009        5.42172972582449
C            8.15135874788709        1.19465015480382        4.19945709528350
C            6.78194908943436        1.06541265821214        3.97002073488692
H            1.51364258789230       -1.70308052305596       -1.49312283070692
H            0.98656247979141       -1.41191596250918        0.16125586550860
H            2.34900427953688       -2.47509328742171       -0.14954571262478
H            2.31832514479074        0.54592061695652       -0.71865971993725
H            3.67108988425151       -0.50648702338205       -1.03400906340298
H            3.82521739672759       -1.04553528234425        1.42482011074533
H            2.46300982256360       -0.00821899656248        1.73502349557017
H            3.77337996560886        1.97056339323682        0.86560824543330
H            5.09421049506274        0.89723109813440        0.47973445055583
H            4.38176714056445        1.48452500806966        4.58207953949744
H            3.40797674431261        0.28849545507938        3.77148861100280
H            2.20762840251026        2.15339242436663        2.54680196367545
H            3.23729761781076        3.31850755745378        3.32449966139479
H            2.35304809547628        2.59673063340351        5.57229357208846
H            1.33450408996083        1.41787643871939        4.79360412066640
H            1.14864455617821        4.45269101559020        4.34193603877070
H            0.03027417676490        3.50148872678101        5.31406503526799
H            0.11562719839085        3.25945151918166        3.57099886394373
H            6.62457344341396        2.18656322942336        0.79449865840537
H            9.02530924991836        2.38579741259323        1.14871043978275
H           12.61459627796933        2.37693420290200        2.74540874570533
H           15.03501755840085        2.64319593839975        3.07056508420944
H           16.05701062807722        2.03305290276856        5.22553342238044
H           14.64898109793985        1.15519684925541        7.04280206388449
H           11.04151049287568        2.35094331841314        8.63078122259260
H           10.88918728646488        3.51562389065220       10.76435068061408
H            9.42691153001941        2.65647198030425       12.55416311226618
H            8.10314940907389        0.63465396596540       12.19386793778352
H            7.38618002126274       -1.18643632953153       10.74635691858688
H            6.63847972603201       -3.01900205913699        9.32913649629089
H            6.74252388225080       -4.23779764956055        7.21439602420172
H            8.23741132650731       -3.46609610864677        5.41143600286996
H            9.61066910988930       -1.47772170912744        5.71456831243818
H            6.18434806689873        0.65276237929061        4.75917466172718
