99
 energy: -18.361381074819 gnorm: 0.000779882303 xtb: 6.5.0 (97a52f5)
C            2.01749562557521        2.36881165477479       -0.11343041105365
C            2.48338547639808        1.21746751636759       -0.99029040006877
C            3.47339328163398        1.65769591902835       -2.06894416705183
C            3.94286256358884        0.50855108468697       -2.95021901743487
N            4.90434599902084        0.94544346068225       -3.98067250314287
C            4.39262099603816        1.36807074065029       -5.30824183009511
C            2.90815293185554        1.15279606086600       -5.58009983177113
C            2.48314173489368        1.67327658802742       -6.95444400347406
C            1.00161291003775        1.46967593480626       -7.22811929846138
C            6.25781555220654        1.14115734446693       -3.66657221181142
C            6.77073184474789        0.89946611661739       -2.37286183544527
C            8.08423719646468        1.11893690476143       -2.07960194479103
C            8.98678670962702        1.59379986180463       -3.05043762964517
N           10.28201314024777        1.81071001108860       -2.72875146637971
C           11.06860260809041        2.28326886099338       -3.68342126712745
C           12.45872141296630        2.52540416830069       -3.35623300962166
C           12.94780864548085        2.25242311085536       -2.07637962451284
C           14.26438347851189        2.47502159562208       -1.75925992438815
C           15.13032526578128        2.97917084150450       -2.71657841029522
C           14.66875159145631        3.25573085430587       -3.98098120182354
C           13.33796278977217        3.03597390749298       -4.32178818153056
C           12.86483760340180        3.34560130066368       -5.67614634414050
O           13.65652159200317        3.82759994773901       -6.48581671210061
C           11.47716678950955        3.08655572040379       -6.00369090596117
C           10.97757457490508        3.37239756705936       -7.34761033916877
C           11.84084221570468        3.44198863305487       -8.45601355016357
C           11.38205088946735        3.66360311097856       -9.73313464896461
C           10.01981628841523        3.84228141022069       -9.94104032235785
C            9.13859388652025        3.81098640306932       -8.85690484998507
C            9.60934613584466        3.56844442303820       -7.58989220249076
C            7.70040889587684        3.97321723310463       -9.36036067151497
C            6.83812594832794        2.74476018234438       -8.97523065809788
C            7.40695625437228        1.41540019252967       -9.46662761787130
C            6.56733249402704        0.21226010027751       -9.03761858456270
C            7.14414184576183       -1.10878538654752       -9.52068840980937
C            7.05818580374917        5.29338850507592       -8.85750225558420
C            6.92530641044191        5.42945226906250       -7.34111104184104
C            6.20918107889202        6.71213511883318       -6.91746627871172
C            6.08559966491532        6.84012720614380       -5.40718299952238
C            7.89206677544871        4.05592383682538      -10.87923367254860
C            6.95875542872175        4.17699140275706      -11.88873562379481
C            7.39406817864967        4.24358818918775      -13.20050904076168
C            8.74629667922486        4.19082070624435      -13.50193655462786
C            9.68703241959187        4.06800215994235      -12.49978458049686
C            9.25619440066523        4.00203328305899      -11.18086545067385
C           10.61272182941903        2.55869172361456       -5.01220460058260
O            9.31395023636260        2.29529137778894       -5.34366034274379
C            8.49114020374378        1.83237689131694       -4.35117438438073
C            7.14610936087983        1.60124776536596       -4.62883227102312
H            1.31194051868422        2.04140900195632        0.65336732355411
H            1.52381106693765        3.14127281018140       -0.70577403457325
H            2.85918055241652        2.84214283373236        0.39530539945488
H            1.62141485787788        0.73194692649171       -1.46658417727703
H            2.94475051494979        0.43503283992239       -0.37340969135086
H            4.33894279270832        2.14206269312929       -1.60267608587568
H            3.02096094357461        2.43729604930160       -2.69251225583703
H            3.09008971912760        0.02088139482725       -3.42713052231598
H            4.40486955577270       -0.27838685715733       -2.34828208017254
H            4.97107979062055        0.83840871578784       -6.06967162150348
H            4.63024950090619        2.42914752407337       -5.42663458058988
H            2.31074857567003        1.64660201334789       -4.80576733416518
H            2.66674187547059        0.08627334770213       -5.50606664427274
H            3.08307734639665        1.18011440962305       -7.73064662919277
H            2.73840283074814        2.73833377052242       -7.03331066231318
H            0.73478190821573        0.41193659205661       -7.18685204804184
H            0.71067212923929        1.84469244084758       -8.21189293031740
H            0.38923359333290        1.98514571869965       -6.48585853968144
H            6.11360953178650        0.54734579041249       -1.59893384749498
H            8.45757579153463        0.93495764186024       -1.08756150621986
H           12.26965696941795        1.86160186486698       -1.33839227181079
H           14.62530544683111        2.25873906910804       -0.76704353032798
H           16.16441008994326        3.15378615452401       -2.46812388009845
H           15.33333672461162        3.64965057626500       -4.73049503285987
H           12.89363474418546        3.30100517921249       -8.29445479135281
H           12.05763022876912        3.68633455483023      -10.57010027794979
H            8.91008347619146        3.49603668636877       -6.78176084833927
H            5.82536990003280        2.88243689559840       -9.36677800762759
H            6.73304651312890        2.70734566085051       -7.88773672025234
H            8.43263998562526        1.29588885669820       -9.09735232583128
H            7.49873161637157        1.43303290525602      -10.55917691750675
H            5.54072076916729        0.33599182908510       -9.40661953888430
H            6.47778456112870        0.20615074414317       -7.94368130954231
H            7.21329144194704       -1.13431175566033      -10.60957652640387
H            6.53575804950819       -1.96066943481006       -9.20936790681924
H            8.15157693505699       -1.26454260603046       -9.13061980478949
H            6.07053746635978        5.39372892680152       -9.31878628630699
H            7.64654359863922        6.13114761685995       -9.24602341324891
H            7.91766826881601        5.40460338394231       -6.87774740647714
H            6.39049843506829        4.56641633554963       -6.92933566893306
H            5.21502853789383        6.74346491697801       -7.38235068526904
H            6.74303414352965        7.57884782587607       -7.32891995097546
H            5.52574932093113        6.00370804891807       -4.98492761071177
H            5.57472998318798        7.75962525335653       -5.11331244793079
H            7.06721273235620        6.84257449893749       -4.93003986096168
H            5.91073935954721        4.21779645495020      -11.64832036488028
H            6.67323021344673        4.33807427365803      -13.99598750459404
H            9.06650150079028        4.24498671902670      -14.52954154743136
H           10.73816608838956        4.02227814834185      -12.72412780067905
H            6.80822386414997        1.79816094841002       -5.62682420853495
