26
 energy: -5.317351029844 gnorm: 0.000335132012 xtb: 6.5.0 (97a52f5)
C            1.13692591871844        0.05788614176533        0.30745660113738
C            0.36125430657505        1.10385696408076       -0.01222487230564
C           -1.09577662083141        1.12468448632225        0.05919334777917
C           -1.80198704227712        2.15177299708654       -0.56938388021586
C           -3.17831635340367        2.19873893885541       -0.52097075044447
C           -3.88085586121123        1.22448915295703        0.15934822369934
C           -3.20144696729807        0.20309233686949        0.79278622019087
C           -1.82478274015621        0.15140795999414        0.74495667714669
C            2.59397065178349        0.04218819929313        0.22966514084951
C            3.27622701881160       -1.17468968052595        0.27959177338324
C            4.65138336956656       -1.21967496413190        0.20237802581447
C            5.37659346555965       -0.05157935612993        0.07865359936027
C            4.72186911459325        1.16306243009895        0.03578401764241
C            3.34646991495471        1.21229472157522        0.11100031949569
H            0.66690449710429       -0.85754994877444        0.61766619153610
H            0.82999123805144        1.99802728318586       -0.38099978913628
H           -1.25665109986635        2.91132516149621       -1.10334636370364
H           -3.70713582462854        2.99670664987327       -1.01650481133501
H           -4.95747871262288        1.26202836337012        0.19705862896421
H           -3.74950113350955       -0.55585395217838        1.32728343260638
H           -1.30664250361708       -0.64228686072805        1.25336775100299
H            2.71261571043212       -2.08732671067997        0.37349367484717
H            5.16146106940433       -2.16867440213460        0.23673448447989
H            6.45215092644932       -0.08774248538641        0.01653683776353
H            5.28824097109275        2.07567003192924       -0.05618552861431
H            2.84871668632542        2.16561654191719        0.09301104805647
