70
 energy: -13.723852596614 gnorm: 0.000671229883 xtb: 6.5.0 (97a52f5)
C            1.86120917092241       -1.54599423588884       -0.79770849981707
C            2.79962727773399       -0.41781177759144       -0.39971295181552
C            3.32433155548603       -0.56006081067654        1.02966478217900
C            4.26028859753477        0.57334908658018        1.43300312811592
N            4.82082784566816        0.42365908684397        2.79424201673153
C            3.85704881990901        0.19902887576350        3.89472086930051
C            2.75356899785684        1.24809610534941        3.96100164359826
C            1.79305758948303        1.02762084112103        5.13034131920960
C            0.68964994392063        2.07195202849279        5.19155198562771
C            6.20748249579866        0.49870699852384        3.03138927646275
C            7.05998354485165        1.21730538102505        2.16498303820945
C            8.40151308328690        1.28524946629157        2.39189038379574
C            8.99462663676405        0.64704967149171        3.49778716963713
N           10.32985384821888        0.73852074710386        3.68615746228845
C           10.82713251794709        0.12103140981515        4.74450126627492
C           12.25541093133621        0.21122537787633        4.98046653026707
C           13.07499453859234        0.93727250909478        4.11363836499503
C           14.42788681281343        1.02534853900522        4.32678571176212
C           15.00052217527425        0.38736261107447        5.41542330282015
C           14.21284184872581       -0.33298200927820        6.28050267864225
C           12.84010611922350       -0.43214149686758        6.08205336806668
C           12.01680862972212       -1.21355887079247        7.00948723356440
O           12.54920238189696       -1.83416529469400        7.92843259670529
C           10.58467696941161       -1.24825744648815        6.79638185176503
C            9.71420009409350       -1.99042357959150        7.71793201094678
C            8.79750163091142       -2.89775874844258        7.20775394547347
C            7.95894770912141       -3.63930426100517        8.03017335571304
C            8.00202887987492       -3.48292930736294        9.38506340786745
C            8.88656896132251       -2.55423777232477        9.97291791669005
C            8.91545172147029       -2.35110916643908       11.37102279083756
C            9.74554121835933       -1.42254548586803       11.92345267517188
C           10.57847719726409       -0.65211679146673       11.10884908039227
C           10.57616852820145       -0.82953704264364        9.75628825323786
C            9.74852426502584       -1.79256510157049        9.14521892098856
C           10.01910611856071       -0.61447256474932        5.66420190511109
O            8.66934616055346       -0.71066459492343        5.48014421180069
C            8.15403252384456       -0.07098781255841        4.38116206012348
C            6.78451050640937       -0.12972429429821        4.12744665801792
H            1.49088799075694       -1.43025493453360       -1.81832634506026
H            0.99413128945970       -1.58925015464362       -0.13665979809835
H            2.36085542769122       -2.51414256765846       -0.73746188704820
H            2.29123412947231        0.54997665360180       -0.50358609943961
H            3.64838835159486       -0.36897174876268       -1.09449055744015
H            3.84627869907570       -1.51791498766707        1.14037037347419
H            2.47795954649580       -0.61546440412298        1.72290701696615
H            3.75410230886270        1.54024570534411        1.36789366146359
H            5.08374311924655        0.61698971831153        0.71647379394739
H            4.39724109038969        0.20045870635298        4.84412777257533
H            3.43649016465232       -0.80483235222918        3.79126151543447
H            2.18750155434699        1.26029830090629        3.02308071343316
H            3.20520603225461        2.24471068619082        4.03355758830117
H            2.36076325464683        1.02206382745402        6.06963437639156
H            1.35782168450947        0.02265876051094        5.05554521606281
H            1.10282295737463        3.07610268535826        5.30027082585273
H            0.01154170014983        1.90285485394956        6.03066054736325
H            0.09099320898932        2.06659721335686        4.27901873167178
H            6.63581333811113        1.75501536246872        1.33624208386417
H            9.03840174293978        1.84146244933782        1.72665246108107
H           12.62384877742515        1.42885750529178        3.26981615488630
H           15.04575234476903        1.58909618180142        3.64731450164452
H           16.06319077923115        0.45485783287766        5.58149629301679
H           14.64816330776243       -0.83494768721368        7.12733155789368
H            8.74863429625028       -3.02850489587430        6.14035709027987
H            7.27016941610396       -4.34303937992500        7.59210960083259
H            7.35023884608080       -4.05805459962587       10.01974757478690
H            8.26432337008384       -2.93782255000567       11.99594744442616
H            9.75809312099356       -1.27645583113601       12.99115632014267
H           11.22608131494735        0.08566244879024       11.55374353461644
H           11.22192804627549       -0.23283856073838        9.13689982948883
H            6.18182094168031       -0.71913450770668        4.79058638642819
