71
 energy: -12.067698391700 gnorm: 0.000272707575 xtb: 6.5.0 (97a52f5)
C            4.17726642283654       -0.45762932351028        0.64501696245256
C            5.39972808823125       -1.36142894956395        0.64193564175051
C            5.04962865908057       -2.83391415159884        0.43740942420817
C            6.26888024698131       -3.74469750202887        0.48303010452535
N            6.96073342790116       -3.67540644147177        1.78042555729238
C            8.05658921966553       -2.92254303339966        2.08106959496971
C            8.71380153554171       -2.09549188135580        1.18104646602967
C            9.83906453761092       -1.32887378896837        1.43442811424674
C           10.38874968182519       -0.48466410447339        0.48560070076267
C           11.53201072346210        0.28790407121080        0.63427615527850
N           12.00113093209604        1.13934983484015       -0.32088943462651
C           11.35881131074035        1.39589165002053       -1.60751014279374
C           13.22180995670882        1.76586727480303        0.06277945608971
C           14.03321963517389        2.66726325349288       -0.61224038463738
C           15.18508929943341        3.11398051294199        0.00030382228888
C           15.53110794679769        2.67192374255368        1.26701348135842
C           14.72739677986428        1.77192395999372        1.94271356751945
C           13.57376149314147        1.32130953657599        1.33586001810320
C           12.50885736272146        0.33876202996351        1.82071900839596
C           11.83302455009964        0.89382973732090        3.08316986305553
C           13.14700510276580       -1.03487177245193        2.07415389928598
C            8.35761256989649       -3.13749416078821        3.57323186222705
C            9.73212668129720       -3.80009622457181        3.75601619939211
C            8.23840835461431       -1.80896280427097        4.33713279764890
C            7.24778671300837       -4.09886722959974        4.01177658207942
C            6.46459000624383       -4.37616068068300        2.91081332568506
C            5.35335754890112       -5.23349809380759        2.99988602096435
C            5.04289741258338       -5.79821976393849        4.19560451530511
C            5.81985448997969       -5.53937275136814        5.35412172210837
C            5.49559865069248       -6.12382302575530        6.59654406458463
C            6.24645847855205       -5.87004410818943        7.70397654168981
C            7.35637513439511       -5.02295208813496        7.62600051948795
C            7.70051264676287       -4.44061259808075        6.44457091712031
C            6.94604343826558       -4.67692640753659        5.27176675532043
H            4.44400762989305        0.59017525596983        0.79535126010702
H            3.48285905977132       -0.73727233057932        1.43852941516392
H            3.63408976762707       -0.52671776306428       -0.29851174895077
H            5.95082743467429       -1.25116737499744        1.58433605690619
H            6.10110496522293       -1.04293288909512       -0.13939036299568
H            4.51660314273946       -2.95647656684625       -0.51332389745221
H            4.33918299331267       -3.14199489304452        1.21267300658167
H            6.97273461634964       -3.48865275171468       -0.31170584055935
H            5.99096584052406       -4.78754928398669        0.30306772073398
H            8.30962021352923       -2.03338372017334        0.18795470991296
H           10.29992205048053       -1.38790568989397        2.39902816819492
H            9.88160388241187       -0.42212525477112       -0.46014674601151
H           11.43714436634495        0.51663034623858       -2.24318744583314
H           11.82705754035800        2.23515385743277       -2.11452553324620
H           10.30800178570112        1.63458717002692       -1.45814724597149
H           13.76754836238515        3.00556399536811       -1.59712568617647
H           15.82397508099387        3.81384049474927       -0.51261174327818
H           16.43532465432492        3.03106448214103        1.72976955281425
H           14.99054103705717        1.42173523977585        2.92513175639617
H           11.37429092682900        1.85939247852066        2.87563832210661
H           12.56158203018327        1.03259923955743        3.88050005804470
H           11.05906992941083        0.22677043656078        3.45415066876050
H           13.63543520462219       -1.39904414047458        1.17144900270176
H           12.40667790899457       -1.77246627692838        2.37459379571630
H           13.89707748382421       -0.97367685965370        2.86119055734838
H           10.53746552292396       -3.16289320280901        3.40027362853726
H            9.77657813095803       -4.73533655393641        3.19978886501821
H            9.92970975549935       -4.02551135967204        4.80145944152054
H            8.96484144584882       -1.07895607663245        3.98915105808144
H            8.39468151868099       -1.94586951146248        5.40455213594478
H            7.24607727847882       -1.38226706773972        4.19814474768110
H            4.76084738142832       -5.43350257810178        2.12556198960136
H            4.19403883558404       -6.45439827696587        4.27806738638324
H            4.64176840299220       -6.77597927862725        6.65827516987424
H            5.98673592805355       -6.32281916105951        8.64661966417083
H            7.94157271707056       -4.83209379421236        8.51045238508722
H            8.55716613707122       -3.79434505812434        6.40352202785885
