69
 energy: -11.210281800502 gnorm: 0.000566106002 xtb: 6.5.0 (97a52f5)
C            1.70744374587145        1.04139190990808       -0.14192506388633
C            3.08476899858794        0.40004725208826       -0.07768630716493
C            3.43345244812906       -0.38377353830795       -1.34326713616746
C            4.81049011087818       -1.02710987517727       -1.28981310061213
N            5.11879369763510       -1.76115867809698       -2.52539088616960
C            5.59169282699232       -1.18078969050645       -3.70306507790267
C            5.93159168108395        0.14443020481975       -3.83148631527820
C            6.40760974481452        0.76364750981831       -4.98476443216229
C            6.78365370645018        2.10529574431139       -5.01829521393104
C            7.22786082532312        2.79303455573738       -6.12197539652313
N            7.22244900635395        2.39905719769258       -7.46730388711257
C            6.43869148277579        1.30365838804757       -8.03118963748090
C            7.83686427497512        3.36819147041882       -8.29615858504934
C            8.06677665620080        3.36454098694308       -9.66780800494344
C            8.68420258529136        4.45556158136340      -10.24218581444256
C            9.07073930665678        5.54055347129324       -9.46917789352980
C            8.84720829413506        5.54904431274618       -8.10286581069212
C            8.23238856616913        4.46093599420468       -7.51959203261318
C            7.85454946544553        4.19232055352726       -6.06592274171918
C            6.83109588293756        5.22668273057910       -5.57675910528130
C            9.10746135035700        4.18991297371767       -5.17805612624042
C            5.64383322321277       -2.29744033093979       -4.75801319214908
C            4.70824032242292       -1.99608727717205       -5.93802613848772
C            7.08382799497875       -2.55586003912789       -5.22431372649624
C            5.12173272810922       -3.51618112069591       -3.99483461385017
C            4.91350126834236       -4.80961856067302       -4.41723643985978
C            4.39165066764563       -5.75584459082031       -3.52670308026498
O            4.14692885153065       -7.09771508955506       -3.85523159548889
C            4.46625326349425       -7.44862711331408       -5.18150872948290
C            4.08791508009191       -5.35063552865752       -2.21810206357388
C            4.29234631852240       -4.05872256624598       -1.79281820982153
C            4.81663899295009       -3.13460043096619       -2.68717202540786
H            1.47188332913011        1.59673037842574        0.76786467169571
H            0.92896490057869        0.28957032362899       -0.27907625412787
H            1.63551805932998        1.73664432976340       -0.97946411987393
H            3.14984124879973       -0.26770891714001        0.79077649718151
H            3.85012845700109        1.16745344248513        0.09467488900239
H            3.37345427496710        0.27547018610708       -2.21653777337966
H            2.67865427041681       -1.15814277552831       -1.52138768369004
H            4.88097749556698       -1.71716121627897       -0.44527651066873
H            5.58681644903830       -0.27699922724649       -1.11974207173694
H            5.82298162583208        0.76647121237223       -2.96224181056722
H            6.54229764528344        0.17406987541505       -5.86776093564612
H            6.76892329096838        2.63647068499976       -4.08263356773166
H            5.51616850583810        1.17406596683820       -7.47002125922046
H            7.01509561253329        0.38128460761666       -8.01602172256298
H            6.16744836840030        1.52474276832919       -9.06072871917213
H            7.77708633024251        2.51686615923755      -10.26201704007838
H            8.86949133855457        4.46501861510224      -11.30352858107654
H            9.55049293470316        6.38483887732178       -9.93567541573416
H            9.14383827374013        6.38724762486731       -7.49757883368580
H            5.94459322723705        5.21513653684843       -6.20924449535451
H            7.25165565209493        6.23081570819965       -5.60262859774779
H            6.52011785353442        5.01725626373505       -4.55455644078989
H            9.82452085957912        3.45076466685719       -5.53248183489273
H            8.85623135328849        3.94927346357052       -4.14632582094266
H            9.59326135685728        5.16437616678846       -5.18891703803285
H            5.02299974447485       -1.11323135600712       -6.48830867232103
H            3.69267914667846       -1.82596767487864       -5.58350212175890
H            4.68480839798263       -2.83209651879041       -6.63540296088531
H            7.50082562877911       -1.69524388417041       -5.74211692953647
H            7.12317565990181       -3.40581298192579       -5.90383456370801
H            7.72460018156449       -2.77716013288492       -4.37205126161366
H            5.15249251509923       -5.07785120673126       -5.42792316974034
H            4.23581207154848       -8.50497107673712       -5.32589818422720
H            5.53048625906974       -7.29059711915653       -5.36158694259888
H            3.86815365412015       -6.85785032017290       -5.87669871885469
H            3.68461291306471       -6.08550175357244       -1.54453026056037
H            4.04846774581899       -3.76199410424815       -0.78895736157547
