65
 energy: -10.619899146140 gnorm: 0.000616795186 xtb: 6.5.0 (97a52f5)
C            2.06469034349391        1.28024536898102       -0.44843146217809
C            3.34873538412348        0.52720656436711       -0.13832276548265
C            3.62930606623835       -0.60059518385475       -1.13177209759941
C            4.91127947805926       -1.36061844949811       -0.82937063500962
N            5.14641936290060       -2.44264927627108       -1.79638222651593
C            5.74122002737747       -2.28120535520368       -3.04878079314352
C            6.27011890023106       -1.10009076971216       -3.51077484985523
C            6.88690144336076       -0.90360218373809       -4.74425595153314
C            7.45200220460757        0.31290583389295       -5.11888760024688
C            8.06289900208719        0.58789004755858       -6.31996567560159
N            8.10296879690585       -0.18403703341856       -7.48655054848945
C            7.24026303474452       -1.32188680730065       -7.79077305481935
C            8.90732723350002        0.41863145213547       -8.48386842173708
C            9.23758510264246       -0.01938201086371       -9.76183263106837
C           10.04352633052819        0.77449873455960      -10.55015508527734
C           10.51885742204336        1.99015250968579      -10.08100699526132
C           10.19600781879174        2.43061915134740       -8.80887359976103
C            9.39247639690531        1.64161055573302       -8.01282234649838
C            8.87266819159848        1.86174220768441       -6.59555120782235
C            7.96968721056209        3.10186742160932       -6.54141597417053
C           10.04260981980757        1.98499069147696       -5.60878584361900
C            5.67822485297834       -3.64791232503512       -3.74942403766924
C            4.84655820790803       -3.57742482618128       -5.03868342463917
C            7.08487756596760       -4.20735265402259       -4.00802066965513
C            4.95561683747954       -4.52433877302049       -2.72498049186645
C            4.57229119026328       -5.84792829898742       -2.78518912188043
C            3.89530832769869       -6.40019933979181       -1.71114124576068
C            3.60002227951723       -5.63609112696096       -0.59175836312044
C            3.97575957587398       -4.31125779497255       -0.52394305879975
C            4.66019902934052       -3.75358526561862       -1.59790931534025
H            1.87713062649003        2.08192617411399        0.26832897040402
H            1.20199291696202        0.61287013282558       -0.42827253739064
H            2.10176997404071        1.72937435037088       -1.44184973684168
H            3.30691927171778        0.11271373597815        0.87690788273937
H            4.19942376176565        1.22035105420751       -0.12837624147868
H            3.67686836253052       -0.19656996301580       -2.14921868090169
H            2.78752654173259       -1.30215328219443       -1.14529276268961
H            4.87581830221218       -1.79094377617199        0.17464338094779
H            5.77373996014309       -0.68952253804468       -0.82886716190707
H            6.20929598329926       -0.24607215092639       -2.86173260486599
H            6.98102285082637       -1.73612641053074       -5.40966173402720
H            7.45278951064607        1.09446289465970       -4.37948377192540
H            6.25969353410974       -1.18017492730272       -7.34226049834597
H            7.68740113230101       -2.24280444284462       -7.42316977341597
H            7.09878871552250       -1.41230260084120       -8.86491392091661
H            8.87759942905607       -0.96737457752270      -10.11835655999261
H           10.30806263786968        0.44637655462678      -11.54173423967455
H           11.14621448305594        2.59751856244675      -10.71194563325273
H           10.56089836349951        3.37225258521159       -8.43863615929877
H            7.14200279725983        3.00214261069195       -7.24207544852149
H            8.52767891099725        3.99957252158382       -6.80324392003425
H            7.55443522011161        3.24119473526026       -5.54459925955979
H           10.67375737851634        1.09858329845990       -5.65294280870451
H            9.68357376233695        2.09369861436472       -4.58666100819733
H           10.65939909012889        2.85098467700363       -5.84392647452087
H            5.30589364918699       -2.93001456718522       -5.78117485365349
H            3.85055106456641       -3.19105867450861       -4.82721678450452
H            4.73623670630090       -4.56613803117821       -5.48143251407057
H            7.64123256347336       -3.59279134373445       -4.71182325204804
H            7.03021658561098       -5.21548567597886       -4.41596430324003
H            7.65231613412318       -4.25109947491746       -3.07954693269456
H            4.79815037979818       -6.43371313075563       -3.65850105889045
H            3.59312785271352       -7.43362753740242       -1.74680043937406
H            3.07019002250273       -6.08249127482579        0.23335805691171
H            3.74211408700201       -3.71343118648054        0.33820227838856
