57
 energy: -9.497028196928 gnorm: 0.000568858355 xtb: 6.5.0 (97a52f5)
C            1.17461831437281       -0.38024541547436       -0.47350347360583
C            2.66642788487346       -0.12363743737923       -0.32810552255900
C            3.02299936713497        0.57535891448595        0.98429062641599
C            4.51155773547190        0.84796269438918        1.13473417437400
N            4.81673741684913        1.53044075217341        2.40082368171862
C            4.71216048638427        2.87397830306876        2.67533086186161
C            4.35228840026789        3.87673566234476        1.73220052768966
C            4.23887777164928        5.17496395379626        2.09089337398784
C            3.90009645468697        6.20426849945067        1.18678868054666
C            3.75183944134660        7.52580069455973        1.49348759025036
N            3.43598102162655        8.50671381230153        0.56557167939025
C            3.24684563075716        8.25997483896355       -0.86069066883648
C            3.32792382566348        9.79238304729898        1.15528167676339
C            3.02531256975719       11.02636362741755        0.59552986818271
C            2.98541899610848       12.13557340510122        1.41262517486924
C            3.24111048690342       12.02514536190068        2.76974153657486
C            3.54175928046440       10.79847730203085        3.33285760774576
C            3.58362283588619        9.68376972707687        2.52236151383083
C            3.88219300343007        8.22170740428139        2.85760442701219
C            2.83722610680412        7.69533475204097        3.85282792295418
C            5.30945036066592        8.10145390890768        3.41278543283247
O            4.99522512996110        3.12002823890873        3.98598908268691
C            5.27285416254451        1.89821240895922        4.56937681285594
C            5.61289486767764        1.54827832695650        5.87924275158536
C            5.82644785877300        0.22907971392635        6.18135722925300
C            5.70832295536470       -0.76526539630040        5.20542417145553
C            5.37661809519887       -0.44930273740631        3.91364494457179
C            5.15884938453233        0.89028900428141        3.58953601496356
H            0.93545640109009       -0.87929136496832       -1.41436299675224
H            0.61001625628056        0.55259518856486       -0.44329561677708
H            0.80251557387962       -1.00911598434983        0.33632687989641
H            3.02786542377613        0.48094899226302       -1.16941329291445
H            3.21993546573897       -1.06852045405604       -0.39680404542568
H            2.67742083875173       -0.02629078162992        1.83244834129427
H            2.47164497554986        1.51896789822045        1.06325329927320
H            4.88112338580070        1.46088405609581        0.30854987244323
H            5.08068031025960       -0.08437770628583        1.09491448552602
H            4.16766876574730        3.58964262228680        0.71433046170142
H            4.42192574475247        5.41904003847213        3.12003746900858
H            3.74720522552691        5.91505956680323        0.16312203336682
H            4.14169345823059        7.80485957743939       -1.27932488298904
H            3.05343819351901        9.18722369234970       -1.39254005932135
H            2.40180648056655        7.59212107545601       -1.01176544675130
H            2.82689435028171       11.11140632682935       -0.45727676038522
H            2.75261068441129       13.09932872365501        0.99097040419608
H            3.20521251898379       12.90304493753936        3.39309655260193
H            3.74036059056517       10.70634498932476        4.38592833122246
H            1.83457144649010        7.80190721531074        3.44152210520435
H            2.87783142685905        8.25323806278774        4.78700163219784
H            2.99421623354583        6.64453518324262        4.08489214525383
H            6.03068778872596        8.47861237235807        2.68932149272386
H            5.57052328298827        7.07067292794083        3.64000690801501
H            5.41713543723403        8.68113927344845        4.32818480526444
H            5.69953722663312        2.31821848821096        6.62433486966361
H            6.08873611242751       -0.04877697032298        7.18880544914534
H            5.88159018723848       -1.79400258627002        5.47416094360789
H            5.28322636897862       -1.20856872875331        3.15842692032435
