65
 energy: -11.086864486608 gnorm: 0.000468481749 xtb: 6.5.0 (97a52f5)
Br          -1.11661111925369       -0.20369511206376       -0.37833356312432
C            0.75625302307599       -0.10753636243523       -0.17762322863703
C            1.36760698674466        1.11696416155115        0.00057895637065
C            2.73410102542075        1.19426477168997        0.14685389899146
C            3.53107652021435        0.03567574401611        0.11643226838605
C            4.99574200930276        0.11127166019861        0.26653851351512
C            5.86645158881088       -0.47920796803608       -0.69971518005052
C            5.37849203619642       -1.11294082777007       -1.85133398043662
C            6.20964050745286       -1.68646076223375       -2.78261715011963
C            7.60795621546481       -1.63360456706504       -2.59501410895659
C            8.12481617311978       -0.98142473132418       -1.46552261884207
C            7.27047011793846       -0.39517702962537       -0.52450583920810
O            7.83843506180920        0.26301400034232        0.55535972513123
C            6.99908797101139        0.83456117505947        1.49935387262608
C            5.58771194060632        0.77129106784507        1.38664942367813
C            4.81428554583837        1.32258318797712        2.41805327620543
C            5.37624985138279        1.94631436632265        3.50542798124468
C            6.78160148975051        2.03693278183915        3.60678565501873
C            7.58051390564156        1.47679730467456        2.59863762135329
C            9.07309401753622        1.54430880987901        2.67899490622789
C            9.58402761385295        1.67836011246132        4.11970823689377
C            8.83743138322866        2.78616444573475        4.85979909544542
N            7.37200153806640        2.66724507252730        4.71163579928573
C            6.56998386156903        3.23139243714462        5.81640040838635
C            5.17155506833252        3.64608640695130        5.36368029959649
C            4.49202984863007        2.51769991737673        4.57532383621776
C            9.60168479332991       -0.89628033764942       -1.24129779442500
C           10.40575413924093       -0.99245529138235       -2.54484932649872
C            9.93987205689064       -2.18031716396295       -3.38425076241088
N            8.47043427539354       -2.21691349043114       -3.53463673772224
C            7.97067505080045       -2.89739841056203       -4.74724645925096
C            6.55269313388662       -3.43628265435488       -4.56820041897467
C            5.62550790718308       -2.35800763644888       -3.99083701535440
C            2.87988882425820       -1.19779188997363       -0.06498730645593
C            1.51257811498053       -1.26159701882246       -0.20925815656005
H            0.76145124043427        2.00784589754090        0.01829985601981
H            3.21112178531305        2.15208083560644        0.25920649832833
H            4.31927561273184       -1.13705288622331       -2.02502737360154
H            3.74501844009040        1.23815134178434        2.37106039147112
H            9.41822117623292        2.39376418271731        2.07879785248009
H            9.49332919228261        0.65142820975421        2.19963152092448
H            9.44030541881168        0.72810628445849        4.64733175136171
H           10.66616522767851        1.86655331392215        4.13154351163795
H            9.13234995806334        3.76810807922707        4.47793589699733
H            9.08120911597277        2.77824089384937        5.92740701156331
H            6.50816731060402        2.47363612558713        6.60333252720567
H            7.11343942135665        4.08190448649477        6.24163976597170
H            5.24497792954718        4.53928173133622        4.73207616526584
H            4.55816680472567        3.93987518043511        6.22629199016038
H            3.55980885702701        2.87584455274177        4.12136013180208
H            4.20074008179104        1.71099525920077        5.25755871710301
H            9.82568597004830        0.03997344802235       -0.71509620188103
H            9.89912411595391       -1.69981137887779       -0.55812662463035
H           11.48093327179436       -1.06701282880675       -2.33273248177916
H           10.27856520483105       -0.06827649361221       -3.12080930959975
H           10.25120995807440       -3.12167420443292       -2.92167026514204
H           10.39067881808997       -2.15667051901231       -4.38202785815996
H            8.66672335379871       -3.70272810557909       -5.00509976157395
H            8.00503696110962       -2.17799274064161       -5.57090767463876
H            6.57513658004516       -4.29810888923503       -3.89081345292576
H            6.16000784290963       -3.81556865021381       -5.52136071598106
H            4.65102562884724       -2.78945155351909       -3.73073612560950
H            5.42136754679370       -1.59646741157477       -4.75202519628093
H            3.46503821368356       -2.10069885547610       -0.06367503492798
H            1.01734648364721       -2.20914147492128       -0.34463963910606
