90
 energy: -9.547706208819 gnorm: 0.016731844048 xtb: 6.5.0 (97a52f5)
C            4.16262870834252       -1.14174567257843       -0.66410510570209
C            4.25934031090241       -1.37897606449527       -2.16166979185002
C            5.60941134666429       -0.96668593703157       -2.75755562656226
C            5.81978409746569        0.47193745350727       -2.79170886430231
N            5.85579820112549        1.09294662299938       -1.58135758192074
C            5.16939858123195        2.18076170431838       -1.37912945037263
C            4.97228550074126        2.78280052268541       -0.23247257433668
C            5.45076663157657        2.42773477059053        0.96450650647940
C            6.36279161700779        1.50593179040435        1.22886595657644
C            6.70801008389904        1.05705569441317        2.42509145923165
C            7.69786316449584        0.19680969472029        2.68428971869133
C            7.93014334377025       -0.45276290795802        3.83763998875048
N            8.95827820518495       -1.35246606763692        4.06942970775070
C           10.00426391809753       -1.68831373134908        3.08967568921958
C           11.41032667066758       -1.62461793417052        3.65886875707771
C           12.51230832242618       -1.84071258575272        2.61172707509248
C           12.66281532755383       -0.74320032490364        1.69195999330017
C            8.84280107319658       -1.92495102044172        5.36089063551648
C            9.61394275889564       -2.87724095828580        5.97204969802258
C            9.31320668713058       -3.26852909758406        7.17569277851815
C            8.25606796847771       -2.77420328327794        7.93223683132602
C            8.09672269050833       -3.35433750570766        9.18164179425547
C            7.28816387682599       -3.22585914657142       10.20674521588651
C            6.23824391362843       -2.48189781284944       10.66518867777113
C            5.69829857608387       -0.07030619085631        7.76735916170911
C            6.43916325329537       -1.09923973080281        8.06569264342421
C            7.44238185543005       -1.73807392927538        7.35695000462323
C            7.75650675755464       -1.36819959496091        6.01919251943114
C            7.06598290214963       -0.47613888381894        5.04994449949881
C            5.70749885916824       -0.83077406029455        4.77793305207135
C            4.61509461817481        2.99397359537131       -5.15675855410846
C            5.61284041533204       -0.05849462670125       -8.61812948230388
C            5.22870991718167        6.79370873604023       -3.16279609137869
C            6.84275709483570       -0.48962200009348       -8.54322395326637
C           11.36740000512408        2.75018644189756       -1.91896222843506
C           11.19622665065767        1.48927433497272       -1.97088033188952
C           11.65614208844713        0.57505284440529       -2.88932451895731
C           12.33557959451755        0.84021454207564       -4.04748437056101
C           12.58622167884605        2.08541473764269       -4.60698143744925
C           11.81336036664246        3.20283159131778       -4.82523578338162
C           10.43563635914519        3.25192170195834       -4.91447374433183
C            9.79847239186341        4.52768581282301       -5.11105431375492
C            9.69889077654554        2.14272650214063       -4.83483641578603
H           -0.19441323008283       -0.74813715218810        1.16545265950554
H           -0.39464949334750       -2.08433922581870       -3.14282135186115
H            3.19478550531509       -1.44525528052109       -0.26545942962055
H            4.92950321590357       -1.69741984156747       -0.12626211307803
H            4.30148098744690       -0.08941133914788       -0.42018442681476
H            3.46279890693128       -0.83238472528884       -2.67843316180670
H            4.06717620150102       -2.43874911720623       -2.37597042944799
H            5.70471249945594       -1.35516843790544       -3.77804246795203
H            6.41882463548999       -1.42935664356973       -2.18614251564479
H            3.82241479805135        6.49260522980013        1.13109595849658
H            2.24885413810883        2.78082041620278        2.28133661926880
H            9.54815927248608       -1.09592607344141       -0.30977138672769
H            1.97016329366548       -2.53879493522414        3.56483070330444
H           11.67600749795477        2.56523143685889        0.98480554660453
H            7.64574262976020       -5.51963057711316        2.11597410443967
H           11.93013851289868       -3.29711199325993        6.82978233910875
H            9.90892701888176       -0.99789677687639        2.25426736833922
H            9.79469095735032       -2.67926423151968        2.69062053188350
H           11.50153668786647       -2.36593802327049        4.45234786195606
H           11.55505161610976       -0.66164861934704        4.14910013019958
H           12.31786452279721       -2.76161178316651        2.05927705304131
H           13.47343970766760       -2.00682652729474        3.10669689705272
H           11.79529696960750       -0.52087538587230        1.15144023203785
H            9.54544809090904       -6.14546618264125        5.02298422402978
H            8.35951596990861       -6.21619422455170        7.78362963830338
H            8.95737283155298       -6.05557544371223       12.84406653513384
H            5.59286649230012       -2.88485822405218       13.05041658602088
H            4.10746552667722        0.42366934531196       11.09750743650351
H            5.82411033572893        0.51139347452305        6.90353483397497
H           10.00925799480482        1.56563629736356        4.24131401101996
H            2.58526570329285        3.92693237944594        7.83261293537074
H            6.36966953425828        3.28526194255692        3.52024373105931
H            5.62462035902947       -1.77733403797111        4.33102832476271
H            3.26435953814584        0.50410035724318        5.26211886097011
H            4.28765572543802       -2.93475649493479        7.26703249185822
H            4.23392199793942        2.18316989270293       -4.67192951911546
H            3.95889461525439       -2.42104854940165       -6.44453532270445
H            6.70286325228451        3.45146531148717       -8.20893259174624
H            4.22890476485516        6.61392857032512       -2.99428403425495
H            4.84816097264397        6.34177418092422       -6.37451354165113
H            7.45301074117528        4.26026886190403       -1.21448926548751
H            8.99319769158666       -1.66844843440300       -3.09808738858283
H           11.49198751794418       -0.45935918697837       -2.63499290037469
H           12.75569823818457       -0.00407514505024       -4.57392502788939
H           12.33847630267108        4.12812770628110       -4.99295853962683
H            9.72451324604291        7.02252588629347       -5.33805178530352
H            7.23025852469141        4.28713131955876       -4.16519254459272
