56
 energy: -10.922186481496 gnorm: 0.000935757881 xtb: 6.5.0 (97a52f5)
C            4.03741851858470       -1.51155915317829       -1.71233054543870
C            4.99564993082018       -0.63504477428353       -0.92107896964121
C            4.41382635127213       -0.19300866528396        0.42109314807768
C            5.34815516417422        0.71689762095941        1.20908769389957
N            4.89544631748455        1.01199203065340        2.58880791438413
C            4.42991718074072        2.29158046378906        2.89120143498039
C            4.06877242430181        3.23415020929888        1.87756051284838
C            3.13138535308282        3.03213157407381        0.84957981307730
C            2.02502138950261        2.18427317015206        0.58319160150326
C            1.32326224974925        1.08530087479340        1.20631079239021
C            0.09525094968537        0.66039819381778        0.68651073947088
C           -0.60245455074688       -0.36481918438943        1.26742055887707
C           -0.10803005300793       -1.02403772612889        2.40048218883624
N           -0.82375732623723       -2.07358117943564        3.00213037948142
C           -2.05250553345042       -2.60237378008477        2.41040705125936
C           -0.37569654522149       -2.69020759863755        4.25082125379109
C            1.12718940971513       -0.60707012403094        2.91166637191944
C            1.82230574321133        0.41720149463379        2.32942283302105
C            1.66911171245218        2.95031331492437       -0.59286162487648
O            0.79429988453355        2.89665424636922       -1.44111671330970
C            2.81091448760636        3.85785585457781       -0.32121890263607
O            3.26336756363954        4.85365693190382       -0.84552267781772
C            4.37059351351229        2.67949790432915        4.25647759682780
C            4.62994337034598        1.79942365917249        5.24701753858216
C            5.00875559886706        0.46204603149435        4.95153639700250
C            5.25626966229365       -0.47004551751967        5.97121321667496
C            5.65918634690332       -1.74299702095690        5.67082840724268
C            5.83723976449602       -2.12077156289907        4.34543770151753
C            5.60164504530500       -1.22888917569476        3.33267036542593
C            5.16838812922008        0.07769876322639        3.60276549598762
H            4.46289474160297       -1.82518967125981       -2.66765161238801
H            3.10562010628088       -0.98474802859210       -1.92420613465515
H            3.77764619015979       -2.41331216211764       -1.15559732310434
H            5.26745654367548        0.25230644298490       -1.50739103013763
H            5.94150441737304       -1.16533925643188       -0.75055007342304
H            4.14933005242296       -1.07197566043840        1.01856731054483
H            3.46353099535735        0.31773008165068        0.24586521106949
H            5.49165301619652        1.66106184979915        0.67630745124499
H            6.34670471952377        0.27500926176464        1.27156870938359
H            4.45857424649030        4.23807232291345        1.96397939267436
H           -0.29297364241014        1.16238533381589       -0.18275516467231
H           -1.54970031218396       -0.66237457720092        0.85488780157527
H           -2.85104880476390       -1.86774128887694        2.49212653628041
H           -2.36908080270656       -3.51315696977991        2.91414771282255
H           -1.88989844545741       -2.83943899739415        1.36097633122845
H            0.53236449745271       -3.26438181760700        4.07769721295992
H           -1.13537517216976       -3.35817633602985        4.65115535457694
H           -0.17726252149303       -1.92279796045758        4.99636300863358
H            1.54615469298804       -1.11472983292007        3.76181530113877
H            2.79788135160094        0.67614175226686        2.69352251211048
H            4.07281556688891        3.68683997824488        4.49113850195988
H            4.55231558679431        2.10135067068274        6.27724687928962
H            5.12894857859344       -0.16945691045340        6.99679710343379
H            5.84657070918243       -2.45124878395230        6.46107221794931
H            6.16505064232076       -3.12129124703200        4.11533560866032
H            5.75778111405340       -1.53900501753085        2.31596960935016
