107
 energy: -21.150253917742 gnorm: 0.000512430051 xtb: 6.5.0 (97a52f5)
C            2.37599845296316        0.97193747858450       -0.30394874227789
C            3.80516289219734        0.45473541105606       -0.34739518905100
C            3.94712948105337       -0.93860213725421        0.26383069476199
C            5.36795024659561       -1.47895673842746        0.20200921867849
N            5.48247834722802       -2.81956941190693        0.78437363855336
C            6.18336672353688       -2.98834997828270        1.99530883822630
O            6.87691537197633       -2.15679090667698        2.56478375123719
C            5.88631597299316       -4.34470125765202        2.41887635254513
C            6.13295377179977       -5.27412530540148        3.44201959002953
C            7.00984242472367       -5.06554852277444        4.58374021756628
C            8.05433812128514       -4.13777751050668        4.51352465020889
C            8.91237354550923       -3.95331623984243        5.56600056577336
C            8.76703167631681       -4.67457741781962        6.75322580388093
C            9.68997558914990       -4.45983192088779        7.85388443073788
C            9.67916798843398       -5.07992963447837        9.07695315019106
C           10.70786145543225       -4.65664610100990        9.94638923170114
C           11.52687730625275       -3.70697862149010        9.41010318167358
C           12.65172486434672       -3.10125201158961       10.08164648378818
O           13.02198154259769       -3.34931619822759       11.20134923397048
S           11.01546049877895       -3.32835506936793        7.79147384557253
C            7.70547485153922       -5.58050547254543        6.83880345203862
C            6.84784928878527       -5.76600500603118        5.78382278612812
N            5.42471306861365       -6.43046993226463        3.09624171471021
C            5.53622813600783       -7.77085712434466        3.67994731158673
C            6.95630907766653       -8.31439672171120        3.62241140105375
C            7.09805814599702       -9.69921812865046        4.25256939715443
C            8.52494764555876      -10.22216597205666        4.20464802870691
C            4.72254925055308       -6.26125310004763        1.88547776103848
O            4.02793685253256       -7.09079859342354        1.31448058363386
C            5.02037043626538       -4.90542109161238        1.46129323647454
C            4.77678697484324       -3.97633660955539        0.43759447437442
C            3.91158613211798       -4.18268092830638       -0.71442477133975
C            2.84259558251405       -5.08179955064307       -0.64965526230483
C            1.99443435207049       -5.25704798220098       -1.71324397643503
C            2.18153841550043       -4.55537768149861       -2.90715072683127
C            1.26671930423010       -4.73619772569219       -4.04991151961999
C           -0.09818800671233       -4.96411567598580       -3.85099649687679
C           -0.95114678964150       -5.12221492722885       -4.91410114229593
C           -0.48023092601936       -5.06569215900489       -6.22609732288722
N           -1.36898818316155       -5.22320447313787       -7.33090955052034
C           -2.73953116434567       -4.80305471145248       -7.22789823984910
C           -3.76156690111685       -5.56503829779703       -7.78623816784574
C           -5.06821535831690       -5.15486420918317       -7.70035922588744
C           -5.41280846625306       -3.96393606645248       -7.05453791256416
O           -6.77081607358105       -3.61782398713811       -7.01267230033300
C           -7.05200950298545       -2.40441859293722       -6.35354393153056
C           -4.38150545661077       -3.20186671298528       -6.49756020702163
C           -3.07492001455616       -3.61457008111901       -6.58482731314762
C           -0.90301405824512       -5.78616530671276       -8.56838848548435
C           -1.31874734433798       -5.26295952973180       -9.78926591419730
C           -0.88146865217815       -5.80741578041122      -10.97043057531928
C           -0.01098655843810       -6.90106857339865      -10.98565353979789
O            0.38582910993999       -7.39660042771855      -12.23577317782488
C            1.24412720847125       -8.51306667470561      -12.18450892703880
C            0.40109762950150       -7.42382890289869       -9.75619882843092
C           -0.03773519769030       -6.87690601366763       -8.57566857412525
C            0.88220935128723       -4.84416604027885       -6.42813139202375
C            1.73529942772712       -4.68023015311052       -5.36603175995722
C            3.27000872435405       -3.68281765948508       -2.98624703710313
C            4.11414747111237       -3.50405145499605       -1.91967222168782
H            2.28731359808986        1.96771541340191       -0.74289372040624
H            2.00929112625866        1.03091257533460        0.72200234729078
H            1.70121414858672        0.31058110313947       -0.84982873593889
H            4.47555299741078        1.14981891667453        0.17443932396747
H            4.16658128905680        0.43340548431686       -1.38367932325253
H            3.26768733490907       -1.63279553339892       -0.24257993532792
H            3.61022064985662       -0.92495388353275        1.30684132000238
H            6.04304219957730       -0.81981943729915        0.75693290805777
H            5.74849913744581       -1.49187592192066       -0.82125242858074
H            8.16767338010788       -3.55103707654247        3.61947011004212
H            9.71218373234314       -3.23787821344217        5.49039167358394
H            8.95131114770594       -5.82464074253632        9.35717704646385
H           10.84191360949235       -5.03863830857129       10.94689751265501
H           13.21459150025335       -2.35673698321948        9.53488391104804
H            7.55635017270349       -6.13438456418358        7.74840237085007
H            6.01436895617362       -6.43387352736307        5.89372759321785
H            4.86128459332110       -8.42960638409915        3.12438747054985
H            5.15232517967489       -7.75568451665335        4.70199070156578
H            7.63836598917823       -7.61481007381085        4.11757738878853
H            7.29126428347249       -8.34249780461252        2.57908774928030
H            6.42083240305221      -10.39933671668248        3.74656636031743
H            6.74546799310473       -9.66139587913640        5.29145638231126
H            8.88132140517495      -10.30094576050837        3.17638350135604
H            8.61475246883818      -11.21015828732908        4.66063310997337
H            9.20735570003728       -9.55344510144766        4.73178087322728
H            2.70198839873920       -5.65414697677674        0.25014114151780
H            1.18555276672931       -5.96310227345525       -1.64195349235346
H           -0.48335180338993       -4.99444428607656       -2.84679626018348
H           -1.99808824163718       -5.30407362827725       -4.74641304810146
H           -3.51037302771026       -6.48578459151414       -8.28288645377280
H           -5.85660252481688       -5.74591234585756       -8.13147382050542
H           -8.12934317782841       -2.23554086772437       -6.38072752409352
H           -6.55242463939757       -1.57941783704824       -6.86333851683533
H           -6.73015657727781       -2.46264978276372       -5.31284620754599
H           -4.61020242454522       -2.27947129862149       -5.99595718710416
H           -2.28675827917410       -3.01462207097042       -6.16452837015854
H           -1.98539601920978       -4.41851016206628       -9.79199080956528
H           -1.20296211590468       -5.40026078378825      -11.91255720222947
H            1.48065944641517       -8.81672929528437      -13.20518116991861
H            0.74790451152898       -9.34079462215477      -11.67586512882366
H            2.16985106031924       -8.24806366370840      -11.67184084596791
H            1.06817762330675       -8.26589397194748       -9.73093760791935
H            0.27514049792429       -7.29413579851835       -7.63453191501371
H            1.25442326440201       -4.78791389321431       -7.43587316447801
H            2.78503018500292       -4.52380636027997       -5.54274091845946
H            3.43479443515811       -3.13241624265323       -3.89604557340938
H            4.96664758886575       -2.85940789724705       -2.02294203101761
