98
 energy: -19.166952690661 gnorm: 0.000644597967 xtb: 6.5.0 (97a52f5)
C            0.29299753573753        0.19085805641381       -0.38251027768677
C            1.81159142877391        0.16436675322820       -0.31231355255664
C            2.47321518460167        0.52848000400875       -1.64121282077812
C            3.99222896778795        0.50549277894970       -1.57686597929312
N            4.60604707353794        0.81906525912962       -2.86946012591916
C            4.66804025503349        2.15807113720736       -3.30373467805623
O            4.14078058337319        3.13482024593587       -2.78760542514342
C            5.51334758300946        2.12328117961278       -4.47950896898977
C            6.08903062637888        2.94764506035916       -5.45683431674545
C            5.92295154635375        4.40127556342962       -5.62485784200540
C            4.92041881566954        4.91693813910059       -6.45285677599863
C            4.79649107065171        6.26817202904002       -6.64984248130376
C            5.66198451275570        7.17301774035286       -6.02607584292276
C            5.53008934756794        8.62472386819197       -6.24511906239736
C            4.29329812193598        9.19941289731515       -6.55459913223247
C            4.17061958162152       10.55045901733785       -6.76017960044119
C            5.27523501567505       11.39636905645902       -6.66047804255166
N            5.14001039482304       12.80185516645738       -6.85192530900770
C            3.87232668772649       13.45099831609261       -6.65016247070947
C            3.42361084192870       14.41861546720471       -7.54412230938020
C            2.21736383709162       15.04427958237505       -7.35231425230886
C            1.40610876053335       14.73294340817979       -6.25745883901085
O            0.18559011316655       15.41419082510820       -6.13899262064095
C           -0.59555938435447       15.03859859627916       -5.02756061903173
C            1.86649145584815       13.76661190231827       -5.35825218881890
C            3.07452034627164       13.14283589107554       -5.55159567119285
C            6.26822041720866       13.60802109845435       -7.23398685132594
C            6.49423172689135       14.83862539048133       -6.62457166796646
C            7.56075954791220       15.61878003274543       -6.99436847748217
C            8.44810058897011       15.20603888725666       -7.99226213088409
O            9.51210628437119       16.06384040014687       -8.30865475396954
C           10.37900344893164       15.58608860658409       -9.31189622884694
C            8.21236108448047       13.97170851271198       -8.60504812047236
C            7.14402366607638       13.19262209129732       -8.23333559393222
C            6.51131566327445       10.82692427284908       -6.35461547606255
C            6.63684177710341        9.47505490039256       -6.15380898075296
C            6.65728974086149        6.65431093301576       -5.19079252872915
C            6.78766512665687        5.30296522035270       -4.99601818708071
N            6.86636861786683        2.11710998062673       -6.26138296358018
C            7.64504255862034        2.54756042439849       -7.42113801236405
C            6.79658560675892        2.63573289737039       -8.67894484198030
C            7.57745408929220        3.12381627906067       -9.89864498324798
C            6.71210530777447        3.23524906437736      -11.14396843756861
C            6.79624935754005        0.77313344312146       -5.84813575158404
O            7.36225467488139       -0.18536164024123       -6.35531071584095
C            5.91631117055114        0.78797893203025       -4.68748199468688
C            5.33845898800555       -0.03039277734704       -3.70644810580196
C            5.51157902476222       -1.47261792601099       -3.58003277988849
C            6.65138969282296       -2.09850596269334       -4.09074051564054
C            6.83258193493416       -3.45929612097875       -3.96273800629891
C            5.87506730677243       -4.23014423490504       -3.33757995272453
Br           6.12594103717870       -6.09599185129720       -3.16019924309973
C            4.72901543872728       -3.63783009942099       -2.84986854189645
C            4.54381202000827       -2.27646930759576       -2.97298293122195
H           -0.16572181766938       -0.07131659748217        0.57310929698425
H           -0.07943304694503       -0.51185231485680       -1.12962541483803
H           -0.07143684766425        1.18083373736255       -0.66137004631202
H            2.15734506910717       -0.82848301401446        0.00365960801870
H            2.16566082603164        0.85044792499764        0.46805297282352
H            2.14322793235697        1.52346149706803       -1.96240968369817
H            2.12664400118963       -0.15002450540670       -2.42854071694542
H            4.36431452687493       -0.45800826152068       -1.21984295113782
H            4.34849307935181        1.24531255774857       -0.85330736763158
H            4.24711737429945        4.23273522989482       -6.93963693640545
H            4.03653353439156        6.63916280228284       -7.31472132003772
H            3.42075481022478        8.57282801242084       -6.61125021115418
H            3.21377644718816       10.97319996025766       -7.01078517443960
H            4.03701411198945       14.66338340193818       -8.39347532176724
H            1.87085524156999       15.78881621606905       -8.04685101342851
H           -1.51964148192724       15.61807051462039       -5.03923732271058
H           -0.05670188259126       15.25310495173544       -4.10365651168975
H           -0.84367398686609       13.97798418403265       -5.08790157393429
H            1.27078146104757       13.50706720661720       -4.50237449281283
H            3.42592368365820       12.40888291864622       -4.84756206381578
H            5.81951084267712       15.16613804759199       -5.85318054557567
H            7.73446673302141       16.56829410158439       -6.52000138518694
H           11.17037097988801       16.32066837701803       -9.46699595846890
H            9.83126844618019       15.45515314706579      -10.24614842403321
H           10.82969536808560       14.64373955192272       -8.99751895958460
H            8.87156850543778       13.62656864136556       -9.38036089575884
H            6.96186818159500       12.25096003620931       -8.72117400116864
H            7.37042579814341       11.46772012395330       -6.26368302534431
H            7.60519323226733        9.05761607424308       -5.94116660378257
H            7.32019700404762        7.33016407302283       -4.67987736396633
H            7.56163401228837        4.91647733661629       -4.35570050279393
H            8.46892141142300        1.84128116386614       -7.56003950441131
H            8.10011065635529        3.51577118894340       -7.19264938280510
H            5.94599592430289        3.30164752523960       -8.49663051378392
H            6.35149164684969        1.65563706313413       -8.88590472726561
H            8.42179658672084        2.44715715288336      -10.08332031980392
H            8.03513295434954        4.09508601940405       -9.66975098778439
H            6.27560208789257        2.27085590423444      -11.40857963026406
H            7.27980903325767        3.58765723312070      -12.00755163876954
H            5.88594127144209        3.93092941709943      -10.98802252366554
H            7.38135003468252       -1.50486526363395       -4.61129105790362
H            7.71589807760547       -3.93626710228072       -4.35507758628955
H            3.98008292120462       -4.25420765102592       -2.37982504561223
H            3.62489904268202       -1.83385792435179       -2.63575721095649
