66
 energy: -13.652158567024 gnorm: 0.000829237746 xtb: 6.5.0 (97a52f5)
C            0.93240978348074       -0.05214487283235        0.26036149774362
C            2.44352287168385       -0.11944297372358        0.41518548075455
C            3.04896582718617        1.20129011942993        0.88942871637498
C            4.56192367997833        1.14917783992942        1.03585738535500
N            5.12894136721871        2.41276883630145        1.52366577578781
C            4.72091703859909        3.65608765576360        0.99102904908689
O            4.00240832472962        3.84542149205107        0.02053624283321
C            5.32714043724883        4.65609963595335        1.85876853151894
C            5.44854728682364        6.04024562960442        2.08699598115085
C            4.85043824655006        7.12038090929452        1.32452364045856
C            5.08785402331330        8.45446880346438        1.65972133340573
C            4.51737785781712        9.47671116481391        0.94120559850182
C            3.68034426218261        9.21298518516713       -0.14418889675683
C            3.06089956881517       10.31320300953790       -0.91470281624597
C            3.77295524013868       11.47745561439065       -1.20330588574471
C            3.19368673515780       12.49949533284891       -1.92288612766338
C            1.89199198734644       12.38254571222500       -2.36713625362798
C            1.17079885718842       11.23861465603485       -2.09131510862160
C            1.74717826396967       10.21389799129764       -1.37341257234920
C            3.44328596259353        7.87978822581690       -0.48058669491236
C            4.01676954715653        6.86034623672020        0.23624505877477
N            6.24684230680510        6.19172395910800        3.20397118675734
C            6.65667480033262        4.95908888999813        3.72808923818809
O            7.35752593213439        4.75403795626457        4.70743531455938
C            6.05356659116135        3.96481126178146        2.84783350964672
C            5.95525094502137        2.58296753844929        2.63155192349987
C            6.59221709435666        1.54058633044946        3.42770220724254
C            6.79118488289600        1.71211783809793        4.79964655031048
C            7.38511954447539        0.73342504470873        5.55685928009488
C            7.82187920549169       -0.45769388696018        4.97535850411261
C            8.46315944120846       -1.51217537743097        5.79082164431857
C            7.98399675594387       -1.82473921282172        7.06296723550488
C            8.58123721085884       -2.80836169138985        7.82030618135941
C            9.66940744456221       -3.49880865268395        7.32612671042890
C           10.15954017188824       -3.20248760155262        6.07033425679244
C            9.56400177382595       -2.22070490700642        5.30928492082193
C            7.64706070263574       -0.62009073379899        3.60024436904845
C            7.04931302196806        0.35706436314086        2.84318979574782
H            0.51218202051737       -1.00213592607026       -0.07607094599326
H            0.64420981652947        0.71018140694283       -0.46519718239402
H            0.45023778369722        0.20415514000073        1.20504510022751
H            2.90786567720172       -0.40927840858793       -0.53630063560042
H            2.71603909016764       -0.91638023518237        1.11912292400968
H            2.60193705626517        1.49435838116380        1.84632793234187
H            2.78079873658286        2.00348563633236        0.19270855386913
H            5.03417186197038        0.90868327894217        0.07912594765237
H            4.82929685451471        0.34897324673988        1.73011804543170
H            5.72610777427157        8.68113458046905        2.49432772105927
H            4.70097598475402       10.49894290530253        1.22323815148101
H            4.79275635327598       11.56527416829497       -0.87096532324945
H            3.75814489740418       13.39147041574573       -2.14006597089779
H            1.43963175250387       13.18328603149260       -2.92890446299168
H            0.15364334380178       11.14716217397281       -2.43576987072161
H            1.17763511998428        9.32953674441068       -1.14620420107226
H            2.81326823715993        7.65515841612779       -1.32370116945844
H            3.83222203013973        5.83732829949897       -0.03649624599312
H            6.52530354668745        7.06766041312761        3.63091568607131
H            6.48171630767673        2.63601372491886        5.25624370043624
H            7.53709827919171        0.88751200006127        6.61106514329456
H            7.12721574735960       -1.29702331303459        7.44444965740277
H            8.19629384227139       -3.04094601750279        8.79966169547879
H           10.13547701493182       -4.26821906106952        7.91961321841930
H           11.01179528304831       -3.73822935943394        5.68550973984947
H            9.95764907542136       -1.98024968646877        4.33702298478817
H            7.98084672488534       -1.53143576645949        3.13525976348156
H            6.96264479305078        0.23089348763725        1.77838727881731
