64
 energy: -7.763355055068 gnorm: 0.006688636707 xtb: 6.5.0 (97a52f5)
C            2.82764643625740       -0.58451123238630       -1.39525545739504
C            2.79757204612803       -1.15072756560894       -2.80738106613527
C            3.82265605118212       -0.53548565763657       -3.70473212493535
C            5.17981204350016       -0.83667696934647       -3.38605430731006
N            5.46345533106364       -2.14858259627786       -3.23955045501710
C            5.67891245423756       -2.64683531379843       -1.99291238686461
O            5.62411727256391       -1.94622174380549       -0.99565531620874
C            5.96880062062408       -4.04235994101760       -1.89596792571182
C            6.24309989102308       -4.68505801312298       -0.78575817528532
C            6.51562525526405       -5.97345924953742       -0.65903602392152
C            6.60009621700518       -7.03180523432587       -1.53186630152538
C           11.38669387759572       -5.99801888337699        2.02008826569792
C           11.14540819405351       -5.27652200497807        3.08996582661465
Br          10.87113026467353       -6.00358892627220        4.67737369609338
C           10.90014719189107       -7.78406785714278        4.93083179287620
C           15.03195352099485       -7.68354581548488       -2.01998827626445
C           14.19183087905565       -7.27710404333748       -2.89614314227220
C           14.44963954590917       -6.44462695001959       -3.91391060177502
C           13.60764643034403       -6.01094817917970       -4.86384177635408
C           12.30836339246518       -6.30341197943540       -5.06281536039115
C           11.58299204624913       -7.13713264926777       -4.28697772286728
C           10.27900192828747       -7.55831425885779       -4.34247317154115
C           11.91296887639911       -5.28563003415181      -12.71590367579523
Br          12.48185223092120       -6.78505701622069      -11.96229878183137
C           11.23227221838162       -3.56780346623554       -2.98873475330821
C           10.23339440686821       -3.31504275170669       -3.89807438064299
C           11.33720151245405       -4.39597415958820       -1.96276298006373
C           12.37949004164564       -4.54973632659016       -1.17474104181326
C            3.18446051784837       -4.31099284175663       -7.02466695113076
O            3.47833106102149       -3.35859699970991       -7.71519457829653
C           13.53798586699119       -3.89835649550453       -1.25418801301081
C           20.16987481291614       -7.41621483213949       -2.43243202132351
O           21.74697946216632       -4.12735197143303       -5.64594244482299
N           18.72125140775099       -3.32513280443447        1.13539147935850
C           18.76860603067557       -3.10008736953315        2.25015126154128
C           19.07607248593700       -4.07291420454172        0.28906384374981
C           19.86550638742145       -5.05233433087932        0.74699688646696
C           20.62415970331098       -5.75040169737012       -0.28145157224408
C           15.11374026694937       -6.42456433924009        3.28687049351845
O           14.88513506210574       -5.20256936187765        3.05953879011807
H            1.49945448938603        1.54197917749255        0.92455040820861
H           -0.39639558854568       -4.40804632506634        0.58459908018797
H            2.08509371066330       -1.05699671494365       -0.74929702871292
H            3.80783795002096       -0.73330362181085       -0.93881380221236
H            2.63008699036094        0.48839544428646       -1.39612289542455
H            1.80052015331867       -1.02289547506209       -3.24991019972299
H            2.96651742693891       -2.23487735439630       -2.78133950260891
H            7.42973975746532       -0.93763939729074       -0.45998761886756
H            3.67382380455207        0.52204517211114       -3.84485648069953
H            4.87944923097409       -2.40371823499572        1.01675002740843
H            8.47767270959504       -8.00126421896437        3.31539791873623
H           12.88045402876283       -4.34532480584322        6.87526070736627
H           19.20767284153822       -7.33377520019096       -3.98740143532193
H           11.81352952581695       -5.84080947034544       -5.90061157970406
H            7.84594416598741       -5.14682853911953       -8.34499444075092
H           19.27728032473638       -5.72055306226147        1.36616643987876
H           17.91662638973092       -2.18231072549695        3.35577053554275
H           21.26256947176611       -5.07752913274908       -0.81990958078035
H           19.99940332284650       -6.27589648307883       -0.98085388575332
H           20.73243455147323       -9.25433349521228        4.13057075903739
H           19.85123031859021       -3.50632860952251        3.44685616928997
H           20.72616352556541       -9.13149586164463       -2.11925450408893
H           24.16858101332211       -5.22476969377968        2.68299379970505
H           18.69671665213705       -4.11902731455098       -1.23874445138178
