64
 energy: -8.704568938709 gnorm: 0.000416511990 xtb: 6.5.0 (97a52f5)
C            1.28500569143037        0.70054730933838        0.36483302360540
C            2.32251020858362        0.07017760758793        1.22551244206459
C            3.23919957348025        1.09640174450909        1.90262029431242
C            4.28872112680959        0.47428012231983        2.76262614408966
N            5.07115479624795        1.38018141978961        3.44245058510331
C            5.88153770028928        0.93583032461091        4.43336820914393
O            5.93729614113571       -0.24529804646734        4.72867911988804
C            6.69550346202033        1.92981006580107        5.16686954134773
C            7.36424593118812        1.48589395830378        6.25679999619386
C            8.19789889965915        2.03799114467050        7.12858211102359
C            8.55382553515014        3.28639180128450        7.37766109735347
C            9.61890425002071        3.60636933381239        8.17773673512187
C            9.81982690524399        4.55389121467800        9.12476518149045
C            8.93408843585063        5.48294342033261        9.55504668711366
C            7.73014971560459        5.77720297101345        9.11363995180458
C            6.85503164447426        6.72305029333892        9.62465544512436
C            5.74953346917671        7.11325468302910        8.88455484609623
C            5.18577754478980        6.61042688169436        7.75687800950428
C            5.18627043375954        5.27277711973147        7.31832595452022
C            5.33351408694317        4.17862034002204        8.22658204577794
C            4.95847303192940        5.01117928055056        5.99633039741885
C            4.87040362982567        5.92115854608253        4.98329717305829
C            5.26248322066571        5.81048691516015        3.72684841420036
C            5.89811895100229        4.83689229284077        3.09169489098773
C            6.43732951782593        3.70194853566024        3.50275146538153
C            6.77095232406556        3.23774938700935        4.72245530212519
C            6.21522727816470        1.11848752336206       -6.54207400186002
O            0.65962618524872        2.55988880642177       -2.76637356637673
C            7.97415390980354        6.02565466789314        5.82649950126227
C            7.15559762156142        7.39933427339844       10.73891349037490
O            6.44409686781791       14.16852766010829       11.60638541774933
N           11.33730357591424        9.57631009320659       10.47948022776747
C            9.77876955712209        9.05495151694981       14.00766962781825
C            9.59347626793347        9.25555087473835       12.68920059817510
C            8.89722321212545       10.58266729147689       12.42965254209295
C            9.65893153242569       11.71566753008257       13.00593876279298
C            7.05767820617454        1.57058174327015       11.89420196562735
O           14.69706937792456        4.94685041128689       16.48688395251481
H           -0.72105044233934       -2.17926054484984       -3.68754447240744
H            0.68421352895115        1.42439816554417        0.87928865851616
H            0.65487183700910       -0.00050034602287       -0.14850723064497
H            1.55662384700374        0.87483895572994       -5.83272773919554
H            2.93307394508540       -0.61240042510241        0.62018307981681
H            1.85290084853027       -0.55908165444930        1.99376341676518
H            2.64139958747393        1.77506302073846        2.52182028573415
H            3.71380220346035        1.73175272028846        1.14506025634151
H            4.90795147450802       -0.23664661262537        2.24053702093888
H            5.53341702278894       -1.93879716230404        5.78196455231655
H            8.62898368515028       -4.24403715103405        7.85590328205923
H           11.17575794856860       -0.50621430971772       11.89622873114343
H           10.78224456361307        4.54717357062601        9.61180077533109
H            2.58565017635349       14.09690829547998        9.41918169968937
H            4.68958642585375        7.32440194045130        7.11548871271320
H            3.55852322586762       11.83856023339746        1.37955166825604
H            1.59443635546793        5.51960326179437       -3.04490382179455
H           10.59205115258096        9.23853679216855       12.22925777809985
H            9.02430413389203        8.40100666058524       12.30221227958286
H            7.89661986559793       10.55527518075854       12.88202740037386
H            8.74137628506614       10.73945746968654       11.35340164923243
H           10.60587747407407       11.86475100837047       12.52390336778242
H            9.82301052785311       11.58708714244792       14.05921325208130
H            8.96215299542648       14.64543450836101        9.36732528901635
H            9.69899642966883       15.95633428225333       15.08504994331229
H            4.43201507996286       14.23522394023144       13.91584658628037
