42
 energy: -7.937695647033 gnorm: 0.000379694141 xtb: 6.5.0 (97a52f5)
C            0.89898043275750        0.16659925436984       -0.32409098258101
C            2.40664344772264        0.01440086753033       -0.19814479742577
C            3.08006538314998       -0.33417166391657       -1.52510177999825
C            4.58509050856766       -0.50705965543348       -1.40655763612394
N            5.19455018061842       -0.84749415482953       -2.68207899847953
C            5.80508301878878        0.17786859214586       -3.41812473612682
O            5.83754904537399        1.32461440201025       -3.00230142342324
C            6.40845990096508       -0.17856668436529       -4.70736564196870
C            7.08198074848838        0.76788964132316       -5.44360446529372
C            7.68731090207907        0.43216733898753       -6.64641385068216
C            7.59877690889018       -0.84382343421481       -7.13483067164340
C            6.88243428612668       -1.83950669201300       -6.45025382191086
C            6.75903441197952       -3.18646741642054       -6.94661979722369
N            7.17277649761951       -3.55257041420746       -8.23691777260859
C            7.46373635148860       -4.94654130980416       -8.57327883135193
C            6.96488013801374       -2.70115685312486       -9.41526784184708
C            6.16699891852552       -4.13904568810206       -6.11643626862544
C            5.63815286764346       -3.80660461399730       -4.88842342069823
C            5.68070348014841       -2.50908921341731       -4.41707211548196
C            6.31368743930361       -1.50739313052494       -5.19358737527757
C            5.09587584018587       -2.17681404276483       -3.12026887056269
O            4.53751476304222       -3.02655380024753       -2.44245350929041
H            0.43139298573698        0.41552868059017        0.63060632328393
H            0.43888904695485       -0.75460398746639       -0.68481253441560
H            0.64022031822956        0.95508869112212       -1.03236887283932
H            2.64647769483791       -0.75889439376154        0.54296816540415
H            2.84755194912454        0.93733274064303        0.19997875078493
H            2.86232592956948        0.43999732150609       -2.26983776097418
H            2.64576664412777       -1.25457643895703       -1.93255185483461
H            4.82766905537142       -1.29869140872496       -0.69052180627426
H            5.05279696865592        0.40949541315638       -1.03282151987341
H            7.14875943244119        1.77140413162195       -5.06002013253832
H            8.23787959891119        1.18015695088679       -7.19292541641515
H            8.12401704441798       -1.09995564854165       -8.03582193529081
H            8.00768397193067       -5.42275594188706       -7.75993474735230
H            8.08052864314172       -4.99723422350834       -9.46848098918331
H            6.53945106252286       -5.49162819198913       -8.75420862822126
H            6.35006043210551       -1.83958733955024       -9.16319179369757
H            6.44811876735907       -3.26134611187415      -10.19222262974671
H            7.92059937277551       -2.36468814795189       -9.81208205222047
H            6.07876791003167       -5.15165801650610       -6.46696231353626
H            5.16677770028242       -4.55762540779437       -4.27799364343791
