57
 energy: -11.317120715890 gnorm: 0.000639451373 xtb: 6.5.0 (97a52f5)
C            0.82945042979255        0.00043906320637       -0.08341083344443
C            2.34649080300529        0.10436011973212       -0.09086761256440
C            2.93727353236840        0.07225739587392       -1.50045046151379
C            4.45353949915424        0.16686544293263       -1.51560170454267
N            4.98599922430442        0.14179604296934       -2.86803436011767
C            5.25512707275374        1.36796260369776       -3.49143202525868
O            5.05174129563180        2.42753321452699       -2.92242035631957
C            5.79393709978744        1.33194449485540       -4.85567670486588
C            6.10303162142549        2.50284950707899       -5.52025279260860
C            6.61842868086778        2.47374781252061       -6.80291805494922
C            6.83108646566032        1.27104197540406       -7.43621553739778
C            6.53149359756419        0.07227016220918       -6.80289736652855
C            6.76064695768615       -1.20536262931751       -7.47830946280907
O            7.22998282919776       -1.24390338859668       -8.61316957734481
C            6.41740490169216       -2.42486679389310       -6.76641938269744
C            6.65056947443488       -3.65498434734407       -7.42561007398850
C            6.36799344192861       -4.89178707581905       -6.92511288424314
C            6.60162939538791       -6.15725317519544       -7.50857847190403
S            6.13690269631146       -7.55205972947998       -6.58472015172965
C            6.70350837132714       -8.65385101750449       -7.80904859620167
C            6.66392376134380      -10.03828459783468       -7.77049668986806
C            7.17416153427678      -10.75286284523144       -8.82584433730239
C            7.72543366416149      -10.08571842629615       -9.91180374266432
C            7.76275379304990       -8.71221346633866       -9.95352376500919
C            7.23794615948782       -7.95607751830477       -8.89538589334131
N            7.14429527438194       -6.53786298364905       -8.70129596782856
C            7.54774093837957       -5.50402354930321       -9.69384131668958
C            8.03249753946153       -5.93826863385782      -11.06003418112012
C            5.89445603296461       -2.33562815748788       -5.47536936840258
C            5.68963381764699       -1.13188553912019       -4.83729724296294
C            6.00446439038769        0.09316079896306       -5.49635818393779
C            5.15588110737328       -1.10883110106239       -3.48183289710356
O            4.86753652135893       -2.14504269505410       -2.90072689451041
H            0.42263747866166        0.02704122790720        0.92936640824012
H            0.49616049342704       -0.92909393073243       -0.54710514112855
H            0.37571337859858        0.82058842379643       -0.64159823082254
H            2.78262433949037       -0.70953673311887        0.50232637432173
H            2.66351086682567        1.02643203312388        0.41295104828235
H            2.51925364818083        0.88938323256088       -2.09957332457367
H            2.63058819060000       -0.84686643608485       -2.01317287103141
H            4.89885252812086       -0.66316672574976       -0.95788054639672
H            4.78912472191260        1.08957359282650       -1.03132324860706
H            5.93637495968442        3.44044683209835       -5.01848426641039
H            6.85533203365005        3.39619602243169       -7.30696562739888
H            7.23353289712536        1.23944408343081       -8.43405297287166
H            7.09392219550191       -3.56195168492895       -8.39621198125923
H            5.91284033607183       -4.93305253607665       -5.95095562219867
H            6.23775673054433      -10.53387944572107       -6.91539795858002
H            7.15027554161705      -11.83001580529277       -8.81036234032101
H            8.13048131130461      -10.65547714543955      -10.73200226221407
H            8.21318308911008       -8.24162617588457      -10.80318490424341
H            8.32526719784735       -4.89941641677150       -9.21547842915326
H            6.67193790852642       -4.85986257589028       -9.82697578178588
H            8.98172158675525       -6.47113073049155      -10.99490353360000
H            8.20577074459263       -5.07976348277457      -11.71293511818898
H            7.29768389413768       -6.57079729491239      -11.55953719866729
H            5.64439200315837       -3.22873929158341       -4.93442557962323
