70
 energy: -14.538199731037 gnorm: 0.000399476587 xtb: 6.5.0 (97a52f5)
C            2.59970817042715       -0.44338267546727       -1.66037303308901
C            3.19791400965991        0.00611866230882       -0.33641974095939
C            3.83539666638032        1.39312992325164       -0.41468228743765
C            4.42264863390065        1.86117792729533        0.90644779284776
N            5.01680861735708        3.18304880436028        0.79329770251628
C            4.15201508422003        4.28758617579378        0.79860584882829
O            2.94854121608009        4.14918858908035        0.92786973259328
C            4.74892957118417        5.62103067504062        0.63598558802903
C            3.96294776882590        6.74620364086221        0.63629374367398
C            4.52363575785319        8.01364927824482        0.48110852057690
C            5.87077781090019        8.16045220290250        0.32584694861172
C            6.71990078161790        7.03307715463105        0.31863408727897
C            8.11601615461369        7.14514209602345        0.16025835541708
C            8.92623656092766        6.03557529821184        0.15290094890653
C           10.32203392000510        6.17352384616138       -0.00828482847083
C           11.52091527299769        6.33508386021991       -0.15094515990922
C           12.85025568301067        6.56534230599405       -0.31858726332483
C           14.03061025376885        6.82024672047392       -0.47844656363270
C           15.38394748535275        7.17254765166633       -0.67254437357254
C           16.36916974076562        6.18248943467593       -0.83024449267260
C           17.68688351691317        6.50409651700342       -1.02901176826228
C           18.07489126746120        7.86683113011210       -1.07830315374389
C           19.42749598524248        8.23358060010739       -1.28682018133547
C           19.76974216567774        9.56221041411559       -1.32477719216895
C           18.80563664301066       10.55675848372644       -1.16297076734128
C           17.49729632276320       10.22683794465327       -0.96361944475320
C           17.09704322770692        8.87419573217617       -0.91659416321736
C           15.75467366109846        8.49476033096940       -0.71507111075301
C           20.44813155442031        7.18994970063232       -1.45920142925464
O           21.61975973678391        7.47905204298785       -1.62634532994590
N           20.02487132160172        5.85309877530476       -1.41855109827972
C           21.03834612566551        4.82087622057607       -1.56500654622045
C           21.85662713364002        4.64823060252048       -0.29607323828426
C           22.95910112736531        3.59740220325848       -0.42490128751003
C           23.78646920022853        3.45258360121091        0.84275091188306
C           18.69992770793083        5.45084798682033       -1.19126617952057
O           18.39540602349977        4.27297414811848       -1.12905377183315
C            8.34439541431281        4.76517423851445        0.30481917783706
C            6.99181137698193        4.60771502655084        0.46238598563508
C            6.15075599132598        5.74893823086583        0.47404408871596
C            6.40555156337200        3.26793103521350        0.61266698100290
O            7.10363439147345        2.27019067363989        0.57811339411659
H            2.15090080710834       -1.43609670688998       -1.59029598894036
H            3.35839966706329       -0.48005108739205       -2.44343731751275
H            1.82282496665860        0.24542979393942       -1.99539376223781
H            3.94875734158019       -0.71854368009735        0.00360855449707
H            2.42669377452818        0.00632500940146        0.44445154371541
H            3.09350205748518        2.12531943626489       -0.75435847544036
H            4.61911425553775        1.40151781757035       -1.18079783799001
H            5.19136363936974        1.16602921175998        1.25906655764404
H            3.65029311609133        1.89969167342286        1.68116073345915
H            2.89954608795592        6.63270659989676        0.75867638700149
H            3.88523658499958        8.88170888596161        0.48402209434545
H            6.30149195721756        9.13927758450423        0.20594639063684
H            8.55598834054022        8.11884061801314        0.04245883706525
H           16.08584522906266        5.14592969895985       -0.79617703455866
H           20.80157421038354        9.82484396911194       -1.48293308676558
H           19.09946685399164       11.59290679906261       -1.19668786774360
H           16.75470863734600       10.99576328226322       -0.83994164165316
H           15.00476056175479        9.25549646070565       -0.59462962351603
H           21.68312080349416        5.09609799681240       -2.40562706039365
H           20.54243254058518        3.88425701460740       -1.83938947242164
H           21.18824452162371        4.39072462227907        0.53344460006599
H           22.29551895376163        5.61484146897042       -0.02244232785879
H           23.60897331660425        3.85751519485290       -1.27023500096047
H           22.51040394041138        2.63305243692015       -0.69538849728492
H           24.26931011804087        4.39449925116929        1.10727185755794
H           24.57041439028701        2.70029749943033        0.73625798108141
H           23.16295997306633        3.16082010212240        1.68906358840256
H            8.97238273510694        3.89253183569292        0.29619046678586
