38
 energy: -7.126095940959 gnorm: 0.000933347894 xtb: 6.5.0 (97a52f5)
C            1.56426754046694       -0.48783704429139        0.98569094511102
C            2.64312701575051       -0.04902232393840        0.00736657393935
C            3.27451925192751        1.29031184612673        0.38611129416786
C            4.34070636698006        1.74869185768506       -0.59650690944213
N            4.90076863768822        3.06492698296805       -0.22907309530407
C            4.26827341329698        4.20805533304359       -0.69785628926204
S            2.94429054746426        4.11856575817436       -1.66376801504654
C            4.78831371613892        5.50056017102709       -0.32192633021993
C            4.21303602098651        6.68727457504608       -0.76153082137081
C            4.72640255706041        7.91827639372477       -0.38776428478288
C            5.82363087311126        7.99108111778700        0.43196097888530
C            6.44377710729774        6.83084975878748        0.90471096354509
C            7.59414596052630        6.91324664986023        1.76377485127179
O            8.04975164379428        8.16981552402563        2.09177379799441
C            9.17965042042992        8.19072065937469        2.93758508614348
C            8.16870349882463        5.71567813007317        2.20588326971018
C            7.65990858124458        4.49517502822404        1.83669265547762
C            6.54363197763314        4.37849221191792        1.00130708902334
C            5.92607444774468        5.56801650635269        0.52765543275877
C            6.00805070985216        3.10665288214795        0.61398974094734
S            6.70667904943654        1.72627632151643        1.17368766027112
H            1.11673569964243       -1.44225689702668        0.70211088888639
H            0.76048696135547        0.24763037781325        1.04097973979956
H            1.96733050192748       -0.60072102138197        1.99313967428967
H            2.22669679712740        0.02180684404485       -1.00670577532443
H            3.42827666630399       -0.81424915412782       -0.05974410231990
H            3.70825218406696        1.22810420801227        1.39099400516914
H            2.49703822786337        2.05961656244883        0.46007232126289
H            3.93062284244119        1.81177787671372       -1.60855212081880
H            5.15393888593530        1.01959780918355       -0.65342429249997
H            3.35247197842020        6.63940832322494       -1.40447227217540
H            4.25989675138648        8.82247307664700       -0.74288852002568
H            6.22618793479418        8.94509333039747        0.72531717869722
H            9.45258136542589        9.22948367117763        3.12890230463580
H           10.01920356559538        7.69104684164506        2.45202025817480
H            8.94440879102765        7.70858818367012        3.88756246818676
H            9.02825762773371        5.74840061849254        2.84979108439281
H            8.12609388130130        3.59469100943267        2.19511256584806
