79
 energy: -15.894980145730 gnorm: 0.000592573321 xtb: 6.5.0 (97a52f5)
C            0.78356620098544        0.22046522859768        0.35357486321350
C            2.29793450650777        0.12401225857321        0.25245065619421
C            3.00256461381193        1.41793949447595        0.66187971415612
C            4.51953736848086        1.33061605722509        0.55742998440706
N            5.18395321665897        2.60021310797111        0.92593371068091
C            4.93412034481738        3.16736402402170        2.20291945001862
C            4.66926736374246        2.36083765125809        3.31367894400820
C            4.49658193728132        2.90208360626145        4.56396036456808
C            4.57983720271437        4.28238265217832        4.76755664158801
C            4.42856933106562        4.89124770533569        6.07127600097572
C            4.36274925543737        4.22634870553417        7.24133839600177
C            4.23766542772645        4.85444167811908        8.55219975191456
C            4.94280274371789        4.34528713577075        9.59603849345033
C            4.93494083854675        4.93732386623041       10.90906418170621
O            5.61063210244443        4.41979198652407       11.79322550227268
O            4.17882066687850        6.07123782301125       11.12837660521038
C            3.40583002422760        6.57486364270156       10.09064080602868
C            2.59761686420402        7.68759243298178       10.34919853379162
C            1.76439061926588        8.21851606523379        9.39072736001379
C            0.90776308067488        9.40025806766929        9.68313101666022
C            1.72988724058224        7.62047493371906        8.13293803476911
C            2.51919638889915        6.53502676014262        7.84874689145311
C            3.38961139702845        6.00227647571127        8.80389691489401
C            4.82189024546903        5.09116355437398        3.65029239984341
C            4.99327723808721        4.55643858812996        2.39476064093287
S            5.24918292541859        5.66319880464662        1.04213289839330
C            6.19685641608511        4.62323675411740       -0.02516872626898
C            7.07586080844244        5.21869930765046       -0.89944199761400
C            7.84733175356584        4.46709135328362       -1.79417614551410
C            8.76118004617990        5.14362350891113       -2.68824736278873
C            9.52852290364566        4.55148407315113       -3.62400336244790
C           10.44003467554010        5.25296531069010       -4.52102624117623
C           10.54326624520769        4.83787958653772       -5.81063206244981
C           11.35942361142615        5.51228107106743       -6.78710269560221
O           11.38773590723431        5.07642337398007       -7.93399959691667
O           12.07219620610987        6.63156685334432       -6.40667516584245
C           12.02767964658383        7.03801781525429       -5.07975778931025
C           12.80626694505644        8.13683856490832       -4.69929365873880
C           12.85809776436623        8.57366995506614       -3.39503056141171
C           13.69605278300492        9.74066703998119       -3.00537984060187
C           12.11983563895421        7.88756182142330       -2.43345976628038
C           11.34023918643059        6.81339212523596       -2.78010172584915
C           11.25106885236298        6.38039300951010       -4.10619977778389
C            7.69956237440399        3.07759151962288       -1.76883052383763
C            6.82432454722776        2.47554799987825       -0.89825111975367
C            6.05022358585775        3.22758255737098       -0.00913352815530
H            0.29352579942092       -0.70956734156223        0.05874426330943
H            0.39556849055010        1.01374362651798       -0.28723807755896
H            0.47053011291440        0.44812379824135        1.37365944794031
H            2.59121007028116       -0.13986036588624       -0.77189081575901
H            2.66590784786447       -0.70127957629994        0.87565467395931
H            2.71427087990795        1.68774541957876        1.68374857632151
H            2.64636420947870        2.24781205842063        0.04047742332120
H            4.78800321054904        1.07238124272561       -0.46957665221490
H            4.91519201587755        0.52687643070541        1.18335529756293
H            4.62995212597475        1.29366628356574        3.18916664426135
H            4.29187788835485        2.25261717226579        5.39589120654742
H            4.42734500199094        5.96634736596921        6.10096846484579
H            4.49392324456819        3.15873216233479        7.23304625434887
H            5.56862079636095        3.48637269343178        9.44445228446537
H            2.63050086569149        8.12143793198535       11.33153763315957
H            0.99098668057728        9.70393817899942       10.72696419088550
H           -0.14099765232633        9.17759659848480        9.48425521612214
H            1.19613596447730       10.25011264105358        9.06382636250291
H            1.06857029710699        8.02016858554343        7.38333018212621
H            2.44283213881199        6.06682647169428        6.88421463826021
H            4.87575774132448        6.15885169926456        3.77191376815149
H            7.16669199142465        6.29085899477412       -0.89453809036887
H            8.79131128433378        6.21625641173532       -2.61706469991836
H            9.42376883070640        3.49283551141601       -3.78118036054119
H            9.96757216081410        3.99545993415374       -6.14421758796038
H           13.38354087137884        8.63588202922706       -5.45544179390767
H           14.21199704921391       10.16591798339451       -3.86661419872876
H           14.45135105147389        9.44868856459256       -2.27512709498348
H           13.08360587736683       10.52650566610232       -2.56225095048176
H           12.17235322503836        8.20968241319356       -1.40763719154359
H           10.81585929690875        6.27474085676882       -2.01200761047990
H            8.28947388374348        2.46686363590863       -2.42818697459691
H            6.76935770548249        1.40213901431193       -0.86398153785408
