98
 energy: -19.345928056297 gnorm: 0.000830689505 xtb: 6.5.0 (97a52f5)
C            0.26467555309672       -0.72144111007867        1.49048785319905
C            1.65732339684052       -0.37919848152139        0.97775418658160
C            2.48822122665393        0.41509045978725        1.98988718291596
C            3.88974540345020        0.74295919401588        1.48875817202933
N            4.70848163082656        1.41134863092231        2.52465962474944
C            4.76529269792900        2.81443447890482        2.55996096873143
C            4.01490297768570        3.60719671094491        1.68021002486030
C            4.19785574150208        4.96368087109463        1.60771581803939
C            5.14863863159205        5.57644514110410        2.40329833282833
C            5.86526120017359        4.83141780916619        3.30254746569290
C            5.65009195981165        3.45485448458889        3.45644253039306
C            6.35627049469679        2.68861262859359        4.47970569638232
C            6.96897937608589        3.34613269345701        5.57487137272217
C            8.07805808135277        2.82900583465148        6.23456825097878
N            9.00363011703251        2.39380241144524        6.78982272272274
C            6.44586346141815        4.58589664966245        6.16147880441449
C            7.27411408535329        5.43033659992029        6.90620202091093
C            6.79246477735271        6.59207948375211        7.46032869650447
C            7.71883135600542        7.48874855198562        8.26445109442331
F            7.76185204234976        7.03453150258008        9.52755636147948
F            8.94374972101518        7.44565446406020        7.71476770268499
F            7.24036083253163        8.74368186926042        8.23909868383729
C            5.46372184057159        6.93010642142120        7.30182733354857
C            4.61490920980167        6.09926942633915        6.59932866541366
C            3.15614896872245        6.47248293213865        6.39599101840452
F            2.83344642203098        7.46245515975428        7.24448478717747
F            2.99666228138858        6.87766426937976        5.12500725529840
F            2.39876138658061        5.38869828873820        6.63350025877305
C            5.09750926337265        4.93791280372666        6.04713628580006
C            6.34407193821616        1.23538147595423        4.34435235841707
C            7.08272259785948        0.39597929722002        5.17556977722624
C            7.01212215027296       -0.98894709154192        5.13427794220072
C            6.13923704198706       -1.59896766692388        4.20095232841850
C            5.40860255191585       -0.76079017647914        3.36438475378508
C            5.48345703410447        0.62493884571249        3.39876190840475
C            6.07817644141639       -3.05713134685358        4.12686800279286
C            5.57783335008927       -3.75193761135819        3.00649175933201
C            4.70400702992789       -3.17826850088919        2.09070235969212
N            3.96543316479649       -2.70030435674189        1.32834271930555
C            5.99382525379149       -5.11605177926026        2.65378512980244
C            7.25361759492060       -5.61479903724998        2.99992049522010
C            7.63128716405434       -6.89228407758093        2.66542494251816
C            8.98606213943834       -7.41121566969224        3.11677983100002
F            9.92315313894125       -6.50700609786651        2.78519550172772
F            8.95364792582032       -7.57493716738625        4.45050420924186
F            9.23282094822620       -8.58377696909818        2.50920730677440
C            6.76867132409412       -7.69924152529535        1.95195911204897
C            5.53222935862494       -7.22292783627629        1.56550926183237
C            4.59409975717457       -8.09708453098574        0.75026553869772
F            4.72869007581382       -7.77463218385851       -0.54673137123281
F            4.92005589386002       -9.38599549727723        0.94382299829705
F            3.33363103311727       -7.86881573743433        1.15570220338706
C            5.15493997318032       -5.94532772973885        1.90314963053859
C            6.59754956530417       -3.78226794914673        5.28558330913433
C            6.18222785272051       -5.08785249632675        5.57899997041111
C            6.70796715481109       -5.78841040456033        6.63280956899792
C            7.65361315279684       -5.19512804053123        7.44988015934288
C            8.03520324532770       -3.89732591999720        7.22808192170474
C            7.49975443071138       -3.15138975332196        6.17018384665047
N            7.78205799937261       -1.78385143774282        6.00717074882754
C            8.83406503991921       -1.15306821831640        6.83202701465049
C            8.30205979491275       -0.64389746244947        8.16893412481211
C            9.35787197707778        0.09793462819712        8.99420303091862
C            8.81998721339511        0.61241316665421       10.32306188986736
H           -0.31194448910930       -1.28755693437732        0.75572066930610
H           -0.30035084297343        0.18122392785096        1.72892084462548
H            0.31698823397930       -1.32255739552277        2.39985864337308
H            1.58493314498440        0.18913316443134        0.04136210977291
H            2.19562589928875       -1.30003817218232        0.71593758770085
H            2.56141219716868       -0.14809940055096        2.92752422662044
H            1.96767998498356        1.34165996801481        2.25839171153225
H            3.85435730250560        1.36310285449060        0.59019720651030
H            4.40501500154304       -0.16109650022230        1.15602708892313
H            3.26502869613862        3.15760248789716        1.05545913490142
H            3.61242889754442        5.55312819492562        0.91994221187227
H            5.31389150267827        6.63920245992542        2.32568947075308
H            6.61504532924609        5.31535677679596        3.90381984510443
H            8.31138195673460        5.17950788379788        7.04495463239651
H            5.08711372706104        7.84465173106472        7.72979966861971
H            4.41397324172134        4.29389005479689        5.52227708899581
H            7.73620340274630        0.83154408722398        5.89948592583053
H            4.72837838800623       -1.20400837292521        2.67162625371025
H            7.94998807751576       -4.99548577445980        3.53732804550627
H            7.06239070359128       -8.70352417209539        1.69369237612507
H            4.18920275989176       -5.58911411319181        1.58901792217758
H            5.42788302029577       -5.54744527306613        4.96419892626537
H            6.39079595451718       -6.80149043429336        6.82206979193986
H            8.07591364137660       -5.74981950877792        8.27272943415876
H            8.74343154703745       -3.44621253979625        7.89846639658182
H            9.28770158602808       -0.33991567838107        6.25908762333883
H            9.64898515898058       -1.86724836317286        6.97683140804457
H            7.89447160531713       -1.47904911192121        8.74959069196708
H            7.44420169299336        0.01555772210940        7.99444457675878
H            9.75125258956581        0.93501808174294        8.40222329966307
H           10.21675018602937       -0.56374757667458        9.16617803118816
H            7.98286128470471        1.29563203321311       10.17033763792471
H            9.58288892338808        1.15010452895372       10.89019163447684
H            8.46124324934711       -0.20763995691570       10.94740442706821
