49
 energy: -9.384180104638 gnorm: 0.000599850814 xtb: 6.5.0 (97a52f5)
C            1.25954091218379        0.81291381092838        0.33838302729139
C            2.62418603493628        0.20433330243503        0.05568733164012
C            3.02054768916239       -0.86020680062586        1.07898731374757
C            4.37987819429015       -1.48453275415705        0.79714277500876
N            4.74873724473104       -2.50151076100909        1.80639887956400
C            5.44875877270562       -2.07762495831160        2.93505181209939
C            5.69653460759818       -0.71526477302985        3.21146486629530
C            6.39235632415894       -0.33131421542127        4.32248019473161
C            6.87870830375257       -1.28366601483459        5.21887583650406
C            6.64708626117289       -2.60796663582395        4.99009789156750
C            5.93234742946101       -3.01252842957067        3.86452292816198
B            5.64442205790696       -4.47554709463069        3.62864261579176
C            6.00686756050517       -5.54320445714157        4.71468266877984
C            5.09673925706865       -5.73761544170400        5.73614958168610
C            5.35476067925434       -6.65698184504226        6.72744265745876
C            6.52612160533698       -7.38610027990362        6.69888813620715
C            7.43463210863057       -7.19232894804933        5.67761504516853
C            7.18450531789148       -6.27352449550789        4.68111339852536
C            8.18878285646252       -6.06991085721124        3.54816572024772
F            9.25325350815161       -6.86915257069554        3.75362864274175
F            7.59342933289872       -6.38857907147266        2.38333149039391
F            8.57685969235966       -4.78058268090897        3.54225929098061
C            4.80440643321168       -4.84808798514112        2.43084709133294
C            4.45939632937815       -6.17777700068291        2.19812425385981
C            3.67995270139781       -6.51025426312443        1.12967310435311
C            3.22139550633500       -5.51039702441340        0.27114663035926
C            3.55727038533418       -4.20363428551304        0.48441711072131
C            4.37559409653852       -3.82403159094012        1.57074666728026
H            0.98929834016420        1.57138837685918       -0.39886673342739
H            1.23541985670478        1.28613986687446        1.32112410088042
H            0.47901920826747        0.05068620046182        0.32821952493510
H            3.39081056561302        0.98951402370827        0.03460183990697
H            2.63980017873628       -0.23627550429174       -0.94942416845222
H            2.25683498211467       -1.64527377631129        1.11297393075686
H            3.01800030054818       -0.42700356749427        2.08553106554417
H            5.16086849710218       -0.72123095071942        0.75398801269541
H            4.40526625538069       -1.93655054316416       -0.19749711873972
H            5.31417054568490        0.04353595884497        2.55395268288001
H            6.56712431165095        0.71476441192495        4.51289043223863
H            7.43160379311728       -0.97207785316239        6.08979778928283
H            7.01744399617632       -3.35522784837823        5.66965172993395
H            4.18814933519060       -5.16067400114269        5.74397823206540
H            4.64348920630184       -6.80661531084666        7.52288931230154
H            6.73133835998186       -8.10745975760888        7.47267263750133
H            8.35012807371554       -7.75767634858991        5.64461257604624
H            4.82617097308347       -6.93670316192855        2.86665207813783
H            3.41587656548159       -7.53936493421757        0.94948432144894
H            2.59496750044845       -5.77552016531131       -0.56454112945126
H            3.16709795173485       -3.45447699401170       -0.17946807899075
