82
 energy: -17.573788724618 gnorm: 0.000992048667 xtb: 6.5.0 (97a52f5)
C            0.98905971490177        0.16790050489366        0.31020876393939
C            0.18489360103452        1.06604706607566       -0.28830528013139
C           -1.26050451822730        1.10581094823113       -0.20353009578729
C           -1.96956114437353        0.24722969219396        0.62300404652139
C           -3.32718357593625        0.36806090618339        0.65908544413644
N           -3.99240750054638        1.25475040968982       -0.04898824114395
C           -3.23811386443688        2.04091435933204       -0.82534556367533
C           -3.92389540069700        3.02460241089838       -1.63619800931177
C           -5.25270217029155        3.21401851636517       -1.58999203096998
C           -5.99780651761524        4.16979737664916       -2.38337551931429
C           -7.35380644465220        4.38380735940107       -2.11523538704879
C           -8.08710253605540        5.28079227622866       -2.85079349532008
C           -7.50174205701088        5.99864758708717       -3.89353184298911
N           -8.26718396739378        6.93041790595124       -4.66493100180912
C           -9.30221847618539        7.70718620285067       -4.04177190037438
C          -10.48445632737507        7.99319743175640       -4.72040180471102
C          -11.47317517626314        8.74342609046925       -4.12424426336351
C          -11.30006177695275        9.22250872150429       -2.84022608735469
C          -10.13276237305484        8.94872163883995       -2.15421877667455
C           -9.14273341910192        8.19870647277780       -2.74822813771141
C           -7.99839787710589        7.09774454255907       -6.06626088027854
C           -8.05521978353963        8.35723051139742       -6.65799873694482
C           -7.80119662928783        8.51383630999221       -8.00220110915198
C           -7.48698582093441        7.41660499463214       -8.78040867525870
C           -7.42772987144048        6.16056611157642       -8.20882103197880
C           -7.68075182702106        6.00156640500090       -6.86484773483328
C           -6.15111566347024        5.78456674054178       -4.16714631506264
C           -5.41359287261888        4.89338007502980       -3.42843584168971
N           -1.90498768318796        2.01392965078456       -0.93775860062724
C            2.43696720650148        0.16833173676257        0.23479815537209
C            3.15907463289516       -0.89511111824908        0.78726211027134
C            4.53064021211096       -0.91877428791571        0.74324717456918
C            5.24562859008231        0.12243583656608        0.15194196452680
N            6.67614876683980        0.10839367825645        0.12005034955254
C            7.38742313601766       -1.13445105888807        0.00888335927294
C            8.57276728834716       -1.34084357399909        0.71036417782391
C            9.25772518154055       -2.52992075264572        0.59888390679721
C            8.77290201419937       -3.53480936862208       -0.21542634862716
C            7.59931334707191       -3.34547265210390       -0.91875534057881
C            6.91250314893744       -2.15722853290702       -0.80875661292493
C            7.41196051938159        1.33816729316224        0.22146733231323
C            8.57337002911223        1.53630719499069       -0.52123453789543
C            9.27926480875839        2.71418797951819       -0.42098136739634
C            8.83965694624949        3.71563088615927        0.42274632101865
C            7.69093889421999        3.53361498760141        1.16802337949807
C            6.98382974909450        2.35637987564795        1.07011448747590
C            4.52994421763610        1.18513137899885       -0.39868774466382
C            3.15814305871702        1.20905562410120       -0.36076555735727
H            0.54309805239491       -0.62195173653867        0.88591911904868
H            0.62809217459654        1.82897911361508       -0.89984233335429
H           -1.46619442454606       -0.48244005059733        1.23098482471267
H           -3.90546354689383       -0.28189133828303        1.29884970428708
H           -3.31755884910233        3.62515288005974       -2.28680140668720
H           -5.81517467220048        2.61118832528442       -0.90024194039798
H           -7.82161784800309        3.83347341659385       -1.31720506185802
H           -9.13113828978235        5.43165204941813       -2.63956057151592
H          -10.61613617311713        7.61186822217977       -5.71784837544513
H          -12.38366607054846        8.95649028813311       -4.66019762760293
H          -12.07425382974954        9.81024072949347       -2.37465690777447
H           -9.99555501004406        9.32426173733998       -1.15333379348419
H           -8.22712231653193        7.99116165989361       -2.22255885104578
H           -8.29296082809685        9.20901178484186       -6.04517454993309
H           -7.84690481229065        9.49424474949759       -8.44730863022879
H           -7.28899887031756        7.54017359114597       -9.83260288117194
H           -7.18473329173534        5.30361213502445       -8.81554469027130
H           -7.64559109528613        5.02452876308553       -6.41569840168922
H           -5.69087019976614        6.33997600540826       -4.96546944705372
H           -4.37580066370981        4.74285580919357       -3.66558269819157
H            2.62292111190615       -1.70405949308494        1.25293823381886
H            5.07398277184431       -1.73766346398761        1.18091019794394
H            8.94205163991531       -0.55708089343450        1.34828901929201
H           10.17318164607447       -2.67662551423816        1.14824818833134
H            9.30998692207348       -4.46512181847267       -0.30238511813125
H            7.22145075293408       -4.12813664139731       -1.55607859287141
H            6.00301946905499       -2.00081894330332       -1.36182706285790
H            8.90678419081087        0.75533229525987       -1.18197880468089
H           10.17578874519711        2.85506739102648       -1.00228063334244
H            9.39288686772132        4.63727211225299        0.50060122391883
H            7.34810026114558        4.31349914161427        1.82811442956382
H            6.09462796109401        2.20448255652873        1.65661117562448
H            5.07376121664439        1.98936740836860       -0.86251671154269
H            2.63538721943194        2.04823338275282       -0.78272812554091
