65
 energy: -12.739722370618 gnorm: 0.000357863912 xtb: 6.5.0 (97a52f5)
C            3.03639575513584        0.99419121888652        0.35194101946494
C            3.49862005360768       -0.42537491657903        0.64084251434200
C            4.00614859908110       -1.14731797417016       -0.60725083141896
C            4.47771227025917       -2.56946622175841       -0.32218399830981
N            4.95062519675291       -3.27547286506492       -1.53130423133586
C            3.99219176560932       -4.00244880813113       -2.29737776907617
C            2.62222427252850       -3.79969572302727       -2.11064463681936
C            1.68211492574305       -4.47780678386066       -2.85715431722662
C            2.08353386932286       -5.38202720537606       -3.81535888331642
C            3.43222689807687       -5.60573984305126       -4.01508258796164
C            4.38387472116760       -4.93591192316960       -3.26886945381759
S            6.06883868895875       -5.34945411981991       -3.59131676388766
C            6.91067953415129       -3.99030312403475       -2.84308802827072
C            8.22537376186115       -3.81129077336702       -3.20911056141044
C            9.02385792139404       -2.80797624485808       -2.64361300326260
C           10.40170503323418       -2.67712603710887       -3.04760815815811
C           11.30431291177219       -1.82526420067454       -2.51518266330237
C           12.65409485680357       -1.76814685886973       -2.96093067323742
N           13.13814347947290       -2.48639677888930       -3.93223095580348
C           14.49028772549032       -2.18309656943909       -4.08407383588723
C           15.37804250738449       -2.73971686978095       -5.02772032496526
C           16.67906845262707       -2.34317941150142       -5.04169760152865
C           17.16670441846683       -1.37659057685152       -4.12235414904163
C           18.51772846339702       -0.96859100486401       -4.12968865309610
C           18.97154126428324       -0.03991964150017       -3.23975113375898
C           18.10128947244373        0.52696403765127       -2.30207387257348
C           16.78989952139698        0.15848205507972       -2.26420192567264
C           16.28280693766992       -0.80291745058668       -3.16880511340165
C           14.93283491843613       -1.23412938355743       -3.17813728752800
C           13.72843541360079       -0.86226113907048       -2.33716259006244
C           13.35006656072894        0.61530389267535       -2.51410014578077
C           13.93651428499616       -1.22492396316954       -0.85951391576573
C            8.43233291232811       -1.97931983547718       -1.68683928541078
C            7.11729942015644       -2.14422156018706       -1.32690221484252
C            6.31334503222294       -3.14029344990911       -1.89567209411853
H            2.66924285322436        1.49708573545107        1.24916936867332
H            2.23002305439175        1.00419234916835       -0.38330086912851
H            3.84920448665277        1.59861378735024       -0.05416446084554
H            2.68063424536447       -1.00591989613976        1.08730944996994
H            4.28976500498718       -0.41793116544599        1.40207508168258
H            4.81663006909217       -0.56906798661015       -1.06435850270187
H            3.22079554679802       -1.16041827780009       -1.37103007203083
H            3.67903250392975       -3.15719277241433        0.13910338778695
H            5.27774546455676       -2.57082262467552        0.42351333192383
H            2.28232751662199       -3.09299286043608       -1.37616129144277
H            0.63191592130478       -4.29927789026270       -2.69224725689131
H            1.35222595204404       -5.91416768392559       -4.40149402786491
H            3.75971720048324       -6.31837916059516       -4.75449795266248
H            8.65567444050170       -4.47736082284459       -3.93713211102108
H           10.74232232271827       -3.32804105411249       -3.83265621102176
H           11.01493979135254       -1.17219465250778       -1.71350574828602
H           15.01007777988095       -3.47239130864471       -5.72368548376480
H           17.36297826124308       -2.76411065767112       -5.75841066341034
H           19.18921761426913       -1.40346983475173       -4.84997270567043
H           20.00627186234749        0.26136934353222       -3.25639701984643
H           18.47428823508841        1.26066232644882       -1.60612720203042
H           16.13113875250466        0.60180914864871       -1.54002651783552
H           13.20575670558637        0.84856480373670       -3.56842547571092
H           14.12625521576193        1.27314587013249       -2.12767595697615
H           12.42412967822282        0.84570197515767       -1.98862375868960
H           14.18918058032905       -2.27976324892100       -0.75796037601151
H           13.03186276592237       -1.03856279442395       -0.28205435233058
H           14.74174112892329       -0.64251729014541       -0.41595116326008
H            9.01123543863609       -1.19546818023448       -1.23205122495294
H            6.69876778667367       -1.47859512364160       -0.59475208948350
