55
 energy: -11.186783961211 gnorm: 0.000616732076 xtb: 6.5.0 (97a52f5)
C            0.51825919328808       -1.30487887506012       -0.26147415865017
C            1.92543348242232       -0.78000889927669       -0.49951807189337
C            2.99331605566335       -1.86503278562659       -0.35920880544951
C            4.40449378021715       -1.35107490175920       -0.61216300694683
N            5.42914886781873       -2.40248056230439       -0.43598131314086
C            5.30193872707545       -3.62239562472648       -1.16425998214938
C            4.76279479960911       -3.63693511647055       -2.44983328286106
C            4.65045435483420       -4.81300968509935       -3.16063134183435
C            5.07826831100509       -5.99953646875054       -2.60449107571945
C            5.61883205443193       -6.00491935710548       -1.33186816144945
C            5.73261041204665       -4.83451240254069       -0.60876488792092
S            6.39703119108933       -4.91923351908615        1.02743092741812
C            7.04231854001124       -3.28068361833192        1.19122974585986
C            8.09096388579534       -3.07916988680732        2.05691772159369
C            8.63015426494091       -1.80417548530094        2.27722278137848
C            9.72379794474814       -1.64559465136289        3.20437509151832
C           10.30422788739836       -0.47803348720672        3.55271737833318
C           11.37825310434765       -0.38842649747239        4.48065687557822
N           11.92899546949084        0.74181016929624        4.83720866864388
C           12.94823148561437        0.56936598655642        5.75405509030156
N           13.64603943566668        1.58378273641663        6.25506839603061
C           14.58983324074161        1.20961810380740        7.13537794441637
C           15.39258055199282        2.20538128511600        7.73895488414317
C           16.36288426133044        1.88724894211643        8.63985307487911
C           16.58925805363257        0.55384124976604        8.98839844513675
C           15.83917456852711       -0.43775862436285        8.43111920949051
C           14.82050504022642       -0.15280825788948        7.49480908730535
N           14.10527251805563       -1.17178552167849        6.97757890342388
C           13.19202794882017       -0.77647647450602        6.12256602717575
S           12.08348851129436       -1.80727663495622        5.25600063902026
C            8.06979752145995       -0.73228048085020        1.57687963811179
C            7.02727292822259       -0.92741730133537        0.70332358505128
C            6.48725320294011       -2.19866112309387        0.48973793841909
H           -0.23454960632100       -0.52076138626033       -0.36463055979123
H            0.41893361560665       -1.72619219761453        0.74007331463392
H            0.26785715645041       -2.09616812641488       -0.96979217205125
H            2.14661371228128        0.03822246690335        0.19790335184710
H            1.99616917485827       -0.32998470677631       -1.49819372953971
H            2.77039615151538       -2.69121910320580       -1.04318205632952
H            2.94495532826386       -2.30795145824507        0.64238891015193
H            4.61369708529231       -0.53145039533462        0.07948736263146
H            4.49752050848359       -0.92951000658182       -1.61638399847586
H            4.44732755534929       -2.71179086054668       -2.89793607004975
H            4.23086541947868       -4.80402007708596       -4.15323810747012
H            4.99018968295131       -6.91990653746318       -3.15792309338838
H            5.95045214854729       -6.92738005450392       -0.88490843684331
H            8.49680556186292       -3.92329538342954        2.58665705422757
H           10.10114363430441       -2.54244297885926        3.66205109047806
H            9.94990993766835        0.44361720888604        3.13078715071201
H           15.21615839166257        3.23155945891124        7.46851090520954
H           16.96018976082110        2.66493861629388        9.08681364572977
H           17.36171977019381        0.31124747865913        9.69961553991218
H           16.01116801756037       -1.46590189610825        8.69705705668587
H            8.46498483569465        0.25820510653017        1.71327950974416
H            6.64507056271394       -0.09427739788241        0.14081536676583
