57
 energy: -10.605073468931 gnorm: 0.000889344090 xtb: 6.5.0 (97a52f5)
C            1.57374161998963       -0.46875149847054        0.52725807928318
C            2.77918951404208       -0.51988662460643       -0.39831579662284
C            3.32394241620626        0.86771589548857       -0.73652443135166
C            4.53311106390513        0.82657642321386       -1.66088233264443
N            5.06934722569354        2.17098779653284       -1.95903142773132
C            6.46327865727443        2.42178192829449       -1.77772065140279
C            7.40956482268644        1.41780726516962       -1.97825470656483
C            8.75663449387811        1.67207236510678       -1.83011850137783
C            9.18798497520440        2.93518251811187       -1.48468928504046
C            8.26526152863150        3.94603212432511       -1.29063397329829
C            6.91413502389909        3.70311633140121       -1.43444434605136
S            5.77917325777419        5.02809972796787       -1.15133976551704
C            4.46793711618471        4.53101130320781       -2.22936911671427
C            3.68232889432232        5.50352744704945       -2.80128949831482
C            2.59507362948671        5.18272737444106       -3.62616569223409
C            1.82852085988593        6.24753106626248       -4.24720789318211
C            0.59514930539453        6.15313417148761       -4.79823810742989
C           -0.30511899582676        4.99789897445706       -4.72353548664693
C           -0.82625579176472        4.47879718092934       -5.86590847478258
C           -1.68308547386185        3.32713570658320       -5.86589248072559
O           -2.14397042367586        2.92866777446209       -6.93231108810178
O           -1.94775442996384        2.69676738198443       -4.66511804197686
C           -1.42247629968451        3.19665421625077       -3.46912379005438
C           -1.73354649415518        2.40546929609039       -2.34115455176902
C           -1.22481131414206        2.40816449771587       -1.09938192154296
C           -0.14832856076129        3.09125804939458       -0.50922549745929
C            6.08555431392679        2.09547248506247        1.80957870167634
C           -0.40388640019005        5.05931622373519       -2.30269620358079
C           -0.67931755414718        4.40182184518201       -3.45199215262171
C            2.34114868000665        3.82802332861780       -3.85823279017775
C            3.12434488483916        2.84993926840782       -3.29657671039407
C            4.20965510678233        3.17394065350726       -2.47844030877520
H            1.18873343894382       -1.46489164774718        0.75382839281304
H            0.75978426814905        0.10445195190544        0.08175746292667
H            1.82408981776794        0.00957728264247        1.47507346235790
H            2.51945876804764       -1.04303619881170       -1.32776180952229
H            3.57773973599753       -1.12204741397813        0.05396371194215
H            3.58970256621953        1.39893229184192        0.18467537889072
H            2.53134229779396        1.47127332745787       -1.19023566988582
H            4.29364626392075        0.32531642628459       -2.60237813456851
H            5.31855123030555        0.22959848853687       -1.19054567699951
H            7.08458776673698        0.44128018708999       -2.29025732505909
H            9.47400892755328        0.88445615919233       -1.99261837209087
H           10.24049693409614        3.13521710783346       -1.36934532884275
H            8.59092612448124        4.93686253602369       -1.02095246285279
H            3.90473944223581        6.53663275527265       -2.59926382441616
H            2.32581575805538        7.20254498135516       -4.29946485120416
H            0.22338753401033        7.00703446807722       -5.34484542776252
H           -0.58331461217381        4.92404971304401       -6.81187157294235
H           -2.45477153901037        1.62970280435319       -2.54007058933061
H            0.01335163712075        2.79326285996529        0.50790013510054
H            0.76006874912273        2.98234683281882       -1.06727363040676
H           -1.51011378700682        7.59567893831387        1.32928713089395
H            6.07846426981650        2.30339735342657        0.80849931237218
H            0.09302820103837        5.98216773231146       -2.26474225496511
H            1.53452064823784        3.54972574015661       -4.51128573890924
H            2.92512990645275        1.81690282517369       -3.51881407237615
