58
 energy: -10.653237765292 gnorm: 0.000541046353 xtb: 6.5.0 (97a52f5)
C            1.09911913988681       -0.21315318251157       -1.16682772268399
C            2.42390705062739       -0.68473428106290       -0.58785751210609
C            3.16956551441492       -1.63740871660261       -1.52168614435164
C            4.49361234892676       -2.12717328450465       -0.94943355747374
N            5.19573500239841       -3.01866776037871       -1.85025362918848
C            6.39512350734215       -3.60839468491170       -1.49405313324337
O            6.98445573811119       -3.29467344286640       -0.46736310617079
C            6.93499289839063       -4.66002387954601       -2.37141871356700
N            7.80191746373343       -5.56332637833965       -1.94961982207692
C            8.05673509789381       -6.37849010759037       -3.00648526578432
C            8.89406636403773       -7.50878225599636       -3.14966313726381
N            9.65959276953715       -7.98135881283560       -2.07491612786407
C            9.66775660249695       -7.32025617468241       -0.77540469435695
C           10.52820206145348       -9.13768192282904       -2.24629139670685
N            8.94844214755392       -8.11792744966805       -4.32306879129796
C            8.19791508560029       -7.62633299655656       -5.33863735752938
N            8.29520793494227       -8.31421282209427       -6.57075056061472
C            7.41241447433743       -7.97143579415666       -7.67541946759716
C            9.05222758385000       -9.55294184424774       -6.66853702125025
N            7.38551887465169       -6.57783075755278       -5.31458330618884
C            7.33065784037324       -5.96807688005284       -4.12960171944917
N            6.61703946988286       -4.85845385249069       -3.72863740005279
C            5.77001496424151       -4.06992372583814       -4.63562443841098
C            4.31924639445963       -4.42084762777042       -4.53681623754921
C            3.34161158436324       -3.47961621307352       -4.81860021949030
C            2.00554854455612       -3.79385630180027       -4.68171357018381
C            1.63131911054111       -5.05509957454706       -4.26719270400173
C            2.59489861941313       -6.00390317387990       -3.99593322232249
C            3.92953021866348       -5.68649252982657       -4.13420620931315
H            0.57703142298570        0.46921447111439       -0.49297197330899
H            0.43296131672381       -1.05490431005692       -1.36285102553854
H            1.24637164124484        0.30837012363839       -2.11395685898039
H            2.25900338718523       -1.17944582239957        0.37811742308838
H            3.06537108910129        0.17669316633701       -0.36089159982399
H            3.34996554921819       -1.14625895156848       -2.48489523390665
H            2.53301448405766       -2.49878749784687       -1.75536840225460
H            4.33412052303621       -2.64987236613349       -0.00001564664011
H            5.15301676935838       -1.28241337895789       -0.72364713063311
H            4.62957033964565       -3.42101641030270       -2.59420726507696
H            8.67629379919707       -7.37053641566402       -0.33024334736427
H            9.94403710611187       -6.27470336763833       -0.89528367123907
H           10.37946970269351       -7.79528893478804       -0.10300893880426
H           10.29760836382363       -9.64138360410272       -3.18269982084457
H           10.38502985393420       -9.84255820629497       -1.42941034093757
H           11.56946042093458       -8.82173331200418       -2.26666152618202
H            7.13599448712191       -6.92062084019260       -7.61601882126077
H            6.50764291446452       -8.57428032752606       -7.62768301652154
H            7.90724506254018       -8.14748874544266       -8.62864321994688
H            9.86817562473811       -9.54643899072441       -5.94878683522072
H            9.47061885010622       -9.66631927496599       -7.66686001332964
H            8.40459666491027      -10.40137872090434       -6.45643252935236
H            6.11857997652528       -4.23954765079395       -5.65784395582473
H            5.92770293474093       -3.00943507363089       -4.42238459972056
H            3.63589821618603       -2.49508563736393       -5.14075871607324
H            1.25389720928235       -3.05237754347511       -4.89824111047259
H            0.58736830165440       -5.29974357840912       -4.15798264484176
H            2.30561274182274       -6.99125468461575       -3.67490061367343
H            4.68793683999375       -6.41866768706428       -3.91929237720558
