47
 energy: -9.421258056460 gnorm: 0.000580510906 xtb: 6.5.0 (97a52f5)
C            1.32435122227299       -0.24783803879770        0.93253115477378
C            2.62540420210334       -0.11819348645789        0.15616464952769
C            3.24769789702524       -1.47196407469503       -0.19013486051556
C            4.54790453086211       -1.34820568385605       -0.97234914813809
N            5.15484458996936       -2.65432775410758       -1.27043311454769
C            6.51106794193062       -2.95512590556986       -1.18076507747178
C            7.11804450874023       -3.66058179594674       -2.22080826056201
C            8.47768614991297       -3.87865630850728       -2.25021232833085
C            9.30118003515980       -3.41885137505560       -1.23884475023841
C            8.72992876876193       -2.75335268727245       -0.12860607940898
C            9.54961688544283       -2.32948008748116        0.94462634719796
C            8.97210704708822       -1.74677593417881        2.04995230002394
C            7.59639138658225       -1.58579796838156        2.13116540439944
C            6.79006368661769       -1.97986290512504        1.09659511459499
C            7.32944033475397       -2.53892955470924       -0.07259438162194
C           11.00252010483903       -2.52021906072445        0.88430221341365
O           11.70806447376221       -2.12084936940668        1.79497066410794
N           11.54749661117058       -3.16575718418833       -0.24653538227074
C           12.96711878583930       -3.33599670670398       -0.32804382453721
C           13.69850231155070       -3.77437406924388        0.77067639438875
C           15.06137094004951       -3.92420260274660        0.70072553112720
C           15.74950733260306       -3.63902297330359       -0.48063753344643
O           17.12475575684419       -3.77197757586647       -0.58466762964034
C           15.01283094356920       -3.20393935114768       -1.58382053422364
C           13.65077489072890       -3.05601644225475       -1.50625620396366
C           10.74310189025258       -3.63913972231348       -1.30729147204859
O           11.22888734157778       -4.22135541002370       -2.26433314185609
H            0.89349743702394        0.72579249554245        1.17407308754101
H            1.47783848653544       -0.78195304550763        1.87141788448662
H            0.57899225489884       -0.80472066231462        0.36265426263332
H            3.34854815103195        0.47656473969164        0.72882500805305
H            2.45789339513896        0.44998647149542       -0.76779927285014
H            2.53296081043377       -2.07256874394475       -0.76440747123510
H            3.42423741928013       -2.04516943451046        0.72685149024264
H            5.26880827440478       -0.72930267981007       -0.43107543946593
H            4.37377258683128       -0.81285819090881       -1.91313567447843
H            4.62367218567832       -3.11718219310843       -2.00419320585439
H            6.50594020718427       -4.00271800299604       -3.03648427126693
H            8.92673254242628       -4.40266801917314       -3.07649996611797
H            9.60792434404805       -1.43376568664049        2.86028217107554
H            7.16137932397777       -1.15576899466967        3.01827450393293
H            5.72341986342986       -1.90540755040140        1.19867744668035
H           13.17274717819539       -3.97535409372369        1.68795581574656
H           15.61222500664827       -4.25798585504766        1.56153202299735
H           17.50014072307537       -4.07476062176213        0.26407803379668
H           15.53865098371246       -2.98818630881914       -2.49672400449362
H           13.08536825603552       -2.73435959532281       -2.36355847216694
