73
 energy: -13.199811933950 gnorm: 0.000874325187 xtb: 6.5.0 (97a52f5)
C            1.07026326513922        0.82343490000424        0.23114103767005
C            2.51761416873782        0.70656595743496        0.68288204487143
C            3.05269677871183       -0.72319667639126        0.59471772143295
C            4.50398444233396       -0.84499876250781        1.04165769846328
N            5.02192808565105       -2.20535993933591        0.95060243790389
C            6.30026578902924       -2.58370347533355        1.12541314347598
C            7.43889809547110       -1.77113668332978        1.44954255975596
C            8.53592849764430       -2.57296067883710        1.51313620425464
C            8.12606487106124       -3.92348178895315        1.23536500278510
N            6.77941776509223       -3.86495751023204        1.00977518383315
B            5.90311269289474       -5.07564205797423        0.65900212268501
F            5.30276835270923       -4.86495999251032       -0.57404236835878
F            4.96097095519969       -5.26449267613467        1.66033516551009
N            6.80400128496224       -6.31871942192020        0.57476034510683
C            6.38647980138773       -7.54059574057402        0.26931496387806
C            7.52989732879879       -8.38578593053394        0.30437849582382
C            7.53035212417807       -9.79579867251829        0.01766844067416
C            8.62605167534800      -10.56371748188182        0.00437661945492
C            8.57283316255010      -11.98891774058609       -0.30709262142172
O            7.50050824522484      -12.52522613133136       -0.52883035159359
O            9.79667476335933      -12.61935957285187       -0.32462491750050
C            9.75345027667453      -14.03819508250587       -0.64218557708125
C            8.93288797992231      -14.79015719186659        0.41315402890676
C            9.16452280676677      -14.24922443415289       -2.04288811230819
C           11.19961344650871      -14.55682280025246       -0.62066583197037
C            8.62890671188890       -7.59332658190203        0.65046304974834
C            8.17453626797261       -6.27687765163031        0.81767405792351
C            8.88617458708101       -5.10317279685467        1.15571842955256
C           10.34920532182196       -5.11699580706962        1.39495345286460
C           11.24668261228967       -5.31210693307912        0.32431338111154
C           10.75310814959511       -5.50110856030588       -1.06849154802997
C           12.60529096708672       -5.33679461569650        0.57370498138280
C           13.11605307344338       -5.15863046030509        1.85006374859089
C           14.58494885458908       -5.15651356291910        2.09580950323169
C           12.22950678041262       -4.94986542029166        2.89436817399323
C           10.86220101488548       -4.93778093152279        2.69658480286526
C            9.95231924750464       -4.72312942943719        3.85632495240218
H            0.70059361157553        1.84840988978711        0.30198295137126
H            0.41588873382871        0.19538361749734        0.83773548248560
H            0.95381994932096        0.50319492679818       -0.80539895572209
H            2.62138954186913        1.06879695046022        1.71390363358695
H            3.15468831203553        1.36930388807643        0.08286502624356
H            2.95598335070881       -1.09126940647287       -0.43321262641202
H            2.42646024983528       -1.38983429713550        1.19869264637324
H            4.61528892417945       -0.50163412096170        2.07569010512827
H            5.14120168176211       -0.19332451929638        0.43445250140420
H            4.32194240201270       -2.90126087790780        0.70952835765948
H            7.41842359691554       -0.70692417629996        1.60910791785750
H            9.54403028944043       -2.26025452111430        1.72501262427396
H            5.37150637475490       -7.81438169946134        0.03736444474762
H            6.58607244412591      -10.25746719957095       -0.20987199964832
H            9.58858236104746      -10.13929611089488        0.21625128509582
H            7.90459643319232      -14.43482408778084        0.42093076613277
H            9.35044567537869      -14.62761117115364        1.40507720937933
H            8.92348453348420      -15.86077112054025        0.21445281226762
H            8.13942264859144      -13.88710943587985       -2.08449093816088
H            9.16557041092312      -15.30359668520399       -2.31512852522189
H            9.74296486409155      -13.70124174959664       -2.78436493849125
H           11.64452897696293      -14.39812248829249        0.35990818241185
H           11.80460066438047      -14.02231638246983       -1.35072678003625
H           11.24104891239847      -15.62049243249728       -0.85046958235902
H            9.64608008840062       -7.92259387824302        0.76551597615248
H            9.76420141945372       -5.06204228183447       -1.20227077784722
H           10.68752797174957       -6.56085107293028       -1.31629371044607
H           11.42179833960944       -5.02819836645355       -1.78841618549429
H           13.28465453668812       -5.49123380918417       -0.24560152010845
H           15.12844324611809       -5.59029134607867        1.25581105831658
H           14.83223126000725       -5.73642382637170        2.98567306173476
H           14.95082674218509       -4.13985834551441        2.24321091589468
H           12.61760118592647       -4.79902504442379        3.88604187074437
H           10.36799812865482       -5.15655669241730        4.76651505386565
H            8.98006576440785       -5.18657029053206        3.68696533055369
H            9.79273613005182       -3.65919950001328        4.03298690437624
