43
 energy: -9.339493165186 gnorm: 0.000239155824 xtb: 6.5.0 (97a52f5)
C            1.09441251597762        0.08097843620560       -0.27401284537114
C            0.25899743639139       -0.85521574783499        0.23654739525435
C           -1.18823514332095       -0.82692145700416        0.15993187071779
C           -1.92630585601943       -1.39162786452837        1.17972509923830
C           -3.30588008470647       -1.30169809948940        1.18363891854053
N           -4.02778382031217       -0.69867915145974        0.27324320988595
C           -3.34692698490027       -0.16459655697928       -0.77893979599637
C           -4.08382404257158        0.45836211068654       -1.80868132220020
C           -3.47182540609043        0.95620840501841       -2.92044931198010
C           -2.09046238170860        0.83899098469173       -3.06981868457025
C           -1.34228747032138        0.25364296514834       -2.09119690973543
C           -1.93517233783514       -0.22825960764338       -0.90428144532673
C            2.54341487004246        0.05876766085509       -0.17721711097145
C            3.28110140253958       -1.15930070810223       -0.27160836490593
C            2.67709399826830       -2.39662786911952       -0.61169483952394
C            3.39929973156560       -3.54843756812847       -0.67874852402772
C            4.77809291045460       -3.54105613683972       -0.42451059437941
C            5.41232121618763       -2.37552394259561       -0.13571600663457
C            4.69431619541880       -1.15156594963850       -0.07120938766099
C            5.35474873464694        0.05231452725532        0.15883824710092
C            4.66864874308733        1.26319163561462        0.19190256458862
C            5.35794224347890        2.48710797790252        0.40186263839111
C            4.68524303626170        3.66566769865971        0.45227784460385
C            3.29103398298965        3.68863721976507        0.30545824247981
C            2.59618042771258        2.53558704826517        0.10358106970070
C            3.25197061776159        1.28015757994870        0.02470676547855
H            0.64584717129367        0.96038304635827       -0.70013358127956
H            0.69007911617272       -1.62633569778236        0.85226689914218
H           -1.41520500848044       -1.87498218073292        1.99474040480057
H           -3.84962389997535       -1.74094189594742        2.00611172239124
H           -5.15219187500252        0.52473006376958       -1.70034097936633
H           -4.05626734020585        1.42577418033878       -3.69475900379921
H           -1.61693917436582        1.20498083727534       -3.96625066438725
H           -0.28901073571866        0.11285055796728       -2.25102027331769
H            1.63257238067748       -2.41941070892891       -0.86325422150155
H            2.91262863346568       -4.47469771126939       -0.93733990901036
H            5.33510641120862       -4.46234875772959       -0.47467678132604
H            6.47430371496808       -2.36441098682802        0.03975060432045
H            6.42070334227112        0.04858627020337        0.29781542887111
H            6.42747364058800        2.46704184312347        0.52170625241735
H            5.22016988543902        4.58776115812266        0.61073668698139
H            2.76824998926562        4.62973224031919        0.35756187024177
H            1.52611921337882        2.58140415109068        0.01512682212396
