37
 energy: -7.112979577951 gnorm: 0.000973132337 xtb: 6.5.0 (97a52f5)
C            1.41240004459372        0.24206071127592        0.20514701037167
C            2.90726536662497        0.10317312648759       -0.03967951188526
C            3.46684640076767        1.20618976123073       -0.93974949697530
C            4.95879238402054        1.05682886861725       -1.20724265745403
N            5.47833862799926        2.06962396476159       -2.11855728379461
C            6.81879024309159        2.00647442628474       -2.58055185065544
N            7.64101685837307        3.02274795358697       -2.63274528661230
N            8.75578069325376        2.46309809806948       -3.11843625375555
C            9.94657512724834        3.25257906131695       -3.35035818190624
C            9.97380568187843        4.59634008518573       -3.01803030061259
C           11.10389233536686        5.34565755000469       -3.23988896148696
C           12.24824298622067        4.77572948760451       -3.80425472985317
O           13.35768481769732        5.61184892477230       -3.99780315856958
C           14.47664659984802        4.98808284410856       -4.58320447230780
C           12.20781298053080        3.41842921150522       -4.13474301209503
C           11.07405676944323        2.67408415075847       -3.90922637353951
N            8.72193199437676        1.16350675408917       -3.38844764401309
C            7.49379018632050        0.83081074051204       -3.05729347032579
C            6.96991503210287       -0.46788634381690       -3.16133020002637
N            6.53396935341625       -1.54154272942775       -3.23956474855720
H            1.02770223553585       -0.55216738657422        0.84806871544500
H            0.85473418482441        0.20515517811720       -0.73206052593961
H            1.17796612523450        1.19451614975266        0.68313727412581
H            3.12559556715230       -0.87478853521146       -0.48809876905952
H            3.44811618406800        0.10593398577488        0.91559722732056
H            3.26820939025021        2.18634567531433       -0.49148721902909
H            2.92831428872420        1.21265852663984       -1.89441870436673
H            5.15960338830195        0.07328648335711       -1.64172088020208
H            5.52699863863437        1.09491575058274       -0.27111172864540
H            5.15560296361866        2.99327121202078       -1.85136947576569
H            9.09555331005349        5.04096843462808       -2.58413119972430
H           11.12992628911291        6.38973172787747       -2.98256390224551
H           15.26854856961863        5.73078375154003       -4.68995407164956
H           14.21348871789163        4.60537200767683       -5.57052636436062
H           14.83161949005213        4.18217119198265       -3.93896979470999
H           13.07045837091753        2.94792236008847       -4.56993984110123
H           11.04472780283361        1.62940683950132       -4.16433015603939
