94
 energy: -17.702288023602 gnorm: 0.000159558735 xtb: 6.5.0 (97a52f5)
C            0.59807969146531        1.06749292829605        0.68179874399061
C            2.05493213457540        1.48340834527554        0.54877561152643
C            2.62760808915785        1.19873193858800       -0.83915874062008
C            4.08976563047440        1.60134582058521       -0.97977401790268
O            4.59991738577361        1.31232213835186       -2.26071017547926
C            5.94467606841017        1.57399133176239       -2.30845188485677
O            6.57576439874237        2.07784472619597       -1.39670061916275
C            6.60526133637083        1.26601747821199       -3.60875279518076
C            6.01011294461437        1.78883888440620       -4.73607292344738
C            6.60129075780690        1.71394652392749       -5.98774168746595
Cl           6.00922459570554        2.77355695336708       -7.21041476397959
C            7.82374054538453        1.03982340299947       -6.15717583485404
C            8.40767995369820        0.76938380371922       -7.45609349455443
C            7.65800109380310        0.64837464903568       -8.64592491288638
Cl           5.98621488195467        0.23160819825079       -8.58777877760662
C            8.29318104780633        0.56855601728606       -9.87761421451977
C            9.66706036107291        0.50289652402884       -9.97891505192519
C           10.44918873378893        0.48912046560032       -8.80219554730568
C           11.85677934221102        0.38227296316159       -8.87555813192095
C           12.60090520254506        0.42300107322523       -7.71477310547499
C           11.99488600261064        0.49962594579723       -6.46815851553109
Cl          12.95990363886061        1.02642800482199       -5.13963191317639
C           10.58949533953217        0.43285220615647       -6.34762173923741
C            9.89341655946060        0.21845219402290       -5.09445618237631
C           10.47376873164768       -0.44591084686323       -3.99972416850784
Cl          11.83913731331024       -1.47303491367970       -4.21656565527784
C            9.78889494768167       -0.54966248017872       -2.79915482133555
C            8.50914913272536       -0.06521066144795       -2.63462767437424
C            7.80834314608768       -0.48591177022228       -1.38791393713796
O            6.70265107003541       -0.99374119937457       -1.44347324911197
O            8.53274925317028       -0.34495734149397       -0.23191147889704
C            7.81732178262891       -0.85252121810944        0.87350567843012
C            7.80833763986092       -2.37534951099804        0.91668392247166
C            7.03300578355634       -2.94308966326777        2.10426630920784
C            7.02958388997499       -4.46383231852972        2.13050389515306
C            7.86957801205583        0.61221071219884       -3.71705472320911
C            8.53010353895568        0.62817714321540       -4.98546651047544
C            9.81472256705251        0.57064956454657       -7.53473530192267
C           12.51590063091979        0.24482633916119      -10.17264612870088
O           13.73095936773693        0.17661142227280      -10.24880760570170
N           11.70338125751160        0.17351887350425      -11.32731916320632
C           12.34131778245693       -0.01250563557098      -12.59894649541489
C           12.42456249906489       -1.27949241962378      -13.20150790244400
C           11.79426248659071       -2.52361689657638      -12.60026840750539
C           12.07341548981790       -2.68276969367241      -11.10398305215251
C           10.29707779620376       -2.58860166849307      -12.90600261497538
C           13.07138266584506       -1.39349097239380      -14.41932205329575
C           13.64399019150223       -0.29962281208898      -15.03018126916121
C           13.56823755804329        0.93940908685691      -14.43431564291664
C           12.91421234424981        1.10262751618900      -13.22932734953469
C           12.84040025855774        2.45953440646329      -12.56274933029249
C           14.20236615426601        2.86811408001553      -11.99990441826208
C           12.25887478604062        3.52628538592017      -13.49328968489425
C           10.30623835761574        0.37611125334986      -11.28727219904451
O            9.64482015964713        0.42773316592507      -12.31024006841993
H            0.20228631505085        1.27653636822343        1.67747529667348
H            0.47505111264553       -0.00059270787169        0.49686446556447
H           -0.02935256242580        1.59412571069475       -0.03867531686217
H            2.66345209584900        0.96942579215662        1.30366366297054
H            2.16392758557704        2.55202108180276        0.77344007962541
H            2.03756293589981        1.71696029901541       -1.60297471277866
H            2.52765041497472        0.13334806884033       -1.07439558083728
H            4.71457098505177        1.07002408693901       -0.25038387003509
H            4.22632728868595        2.67522204045262       -0.79997857007342
H            5.08302181586194        2.32626305781771       -4.63428758222199
H            7.69957881240117        0.50845977800616      -10.77299215654511
H           13.67483361252210        0.41600594243866       -7.78015639626359
H           10.24285436868234       -1.10234154766989       -1.99462138741427
H            6.79734956143043       -0.45077165771341        0.82282008038164
H            8.27933170514573       -0.43857550884886        1.77858500823015
H            8.84092680521144       -2.74092163295656        0.93267821948777
H            7.38315904479914       -2.75376754211829       -0.01962670399757
H            6.00329788948116       -2.56438918595032        2.07789997777282
H            7.45872656977610       -2.55069104930839        3.03647161647105
H            6.57888618088454       -4.87218853535179        1.22480138078969
H            6.47126158360829       -4.85722912330652        2.98206980821000
H            8.04459906873187       -4.85901634475816        2.19200023964693
H           12.27258409143569       -3.38214654540987      -13.10475417831511
H           11.51318181465796       -1.94878088104260      -10.52830772831639
H           13.13144987093439       -2.54027924672934      -10.88156747787286
H           11.77758364083603       -3.66778932639771      -10.74114973569893
H            9.77631369124894       -1.74933267878620      -12.44873329232085
H            9.84805049197284       -3.50568607002562      -12.52376953162202
H           10.10892870364621       -2.53940175030727      -13.97879727811834
H           13.12677625261161       -2.35713519261891      -14.89613508173169
H           14.15087464800018       -0.41348543202255      -15.97424862566923
H           14.02601677614754        1.78989214672336      -14.90846512934475
H           12.14518016969973        2.35239116385782      -11.71223807848616
H           14.93090275216484        2.98723419273658      -12.80104657248547
H           14.58461912384640        2.10769420815891      -11.31731193705215
H           14.14638983406856        3.81289197496558      -11.45868036550885
H           12.91789152216360        3.70601242944433      -14.34158052384930
H           12.12581310532780        4.47726557934244      -12.97667186088465
H           11.29001799057919        3.21756859358225      -13.88725838678882
