109
 energy: -20.372776937956 gnorm: 0.000533626371 xtb: 6.5.0 (97a52f5)
C            1.52839863034981       -1.20029740656363        1.17085925066822
C            2.94301203481541       -1.74739302718181        1.06032240252112
C            3.92722747780385       -1.02823422590451        1.98090506064633
C            5.35320534621441       -1.55152273856499        1.86926619093018
O            6.23868265728830       -0.81331093090597        2.68327981247177
C            7.52939063550672       -0.92201119280813        2.23968766015006
O            7.88057315164355       -1.64112784623700        1.32215437893308
C            8.53959197505464       -0.14827545846394        3.01649774544043
C            9.64378805320064       -0.84651316302311        3.44175660824592
C           10.53410024154311       -0.32472784452880        4.37176144571476
Cl          11.53399405233038       -1.43838645007541        5.19777374100265
C           10.37193885562878        0.99588092324504        4.85613147787035
C           11.31629482769130        1.60627744097014        5.75163932091124
C           12.68032414456530        1.22049022146931        5.85999488272943
Cl          13.49626887844014        0.55430337385970        4.51413113742190
C           13.45692657155494        1.66196796530621        6.93231132650478
C           12.97866711695590        2.57389079497688        7.84101765483832
C           11.67914533162209        3.11907514675941        7.66798850884677
C           11.19437364092275        4.09969476655310        8.55928436213971
C            9.92075220655504        4.61729548682260        8.35004165613968
C            9.21628026643333        4.19725818354063        7.29050774980684
Cl           8.04480296412876        7.71095768784337        4.53977975136040
C            9.60151884111213        3.27514749079215        6.35739405687285
C            8.84213315426203        2.90873480416281        5.18540373298042
C            7.74918874559069        3.69558277759177        4.70810504579392
O            7.44056700486927        4.99150567773505        5.12237697651484
C            8.56786809555798        5.88388089028733        5.16588598495746
C            8.69230943760955        7.11398011860588        6.24848935077094
C           10.03435377510944        7.73330480104978        6.33247939391892
C           10.62026115557494        7.88653654158060        5.12834365904809
O           11.85253238540551        8.45606104343379        4.82352989589081
C           12.55120174551005        8.91916055081793        5.95300777413867
C            9.76660960729892        7.30901341128840        4.01511186316772
C            9.70453758731004        5.81348477615481        4.19107405242608
C            6.97097422274067        3.18826209721155        3.65578123593623
C            7.24034654755311        2.00153764277696        3.02849271997860
C            6.50752249814340        1.75695371220578        1.75173417787927
O            5.30676205535271        1.95063123977040        1.69156828485548
O            7.28552620391628        1.40399761672584        0.68131022200675
C            6.51230354203619        1.27745018797355       -0.49251483553195
C            6.11037007691082        2.62223814286934       -1.08240582658016
C            5.28937759887821        2.49403987354246       -2.36471371476821
C            4.88281844892069        3.84116295704985       -2.94152563878057
C            8.30982458265686        1.17831720948293        3.49539606390151
C            9.17610056214284        1.70172774148447        4.50686376022171
C           10.86812591330397        2.66371870806466        6.58817774580736
C           12.01540789378610        4.55602237382478        9.68051048191646
O           11.58169780461518        5.36411439237305       10.48238622301592
N           13.32350653877057        4.03461672489000        9.80449084544196
C           14.11994554883413        4.41762030104163       10.93562650734830
C           14.92628083313127        5.57008373691822       10.91963558113138
C           14.96221078005262        6.53343389232037        9.74738446875068
C           15.07574713423214        5.83276295638644        8.39165084712524
C           13.77457987198577        7.49548787571927        9.79007779925309
C           15.68531296925533        5.86525533543083       12.03757163080965
C           15.67757532519662        5.04550087328106       13.14506575983251
C           14.89467055046685        3.91252171334004       13.15682030597771
C           14.10622289781960        3.58996032455895       12.07112383390039
C           13.25470668824808        2.33857308801830       12.07496300562557
C           14.12327617294442        1.08410110648087       11.97373896628425
C           12.31049124533438        2.29037352161689       13.27823670050400
C           13.82327875696269        3.02615909030257        8.94732798388418
O           14.93003619758777        2.54642107579123        9.11806625633470
H            0.83489630440570       -1.72280130554930        0.50926348520289
H            1.49494409255071       -0.14085660313870        0.91254190744252
H            1.14750568955412       -1.29633428878472        2.18856004084510
H            3.29543750396633       -1.67234939683463        0.02378902068371
H            2.95168512176499       -2.82087992113411        1.28798482766843
H            3.59657866543250       -1.10567962773917        3.02234620501349
H            3.92995978646093        0.04610128016356        1.76329399111627
H            5.71076880412606       -1.48745324686174        0.83383492997803
H            5.42124751064165       -2.60501798560659        2.16775543100817
H            9.77171999261154       -1.86542485608864        3.11861048998608
H           14.47035698694989        1.31272549616954        7.02614327377171
H            9.51925593536181        5.35662279751134        9.02610263106892
H            7.93882500686132        7.25377465599806        7.03588490651507
H           10.47633348456717        8.04939445565649        7.25916477225192
H           13.50105438904314        9.34357014988075        5.62411177316717
H           12.74574623842031        8.08791792709588        6.63213055030821
H           11.96853090376582        9.69269597620846        6.45577486417792
H            9.99313309509956        7.68283769797446        3.00507444418929
H            9.68943033512345        5.12893882906028        3.36346029416885
H            6.18175703324165        3.80955590733830        3.27280149949685
H            5.62875585265404        0.67434992083475       -0.25133886304913
H            7.10773359170989        0.69802825469147       -1.20947637508404
H            7.01103461626533        3.21719101258628       -1.26922818044177
H            5.54376078669332        3.18393576857009       -0.33138617646451
H            4.39800488112183        1.88600829450040       -2.16371105585611
H            5.86291764759808        1.92395426460732       -3.10673220244816
H            4.28326988942425        4.40965748617701       -2.22915981770156
H            4.29465350993528        3.73411852755086       -3.85495844504755
H            5.75773334175739        4.44647132390184       -3.18288060173660
H           15.88083620173407        7.13404154841737        9.87311742214165
H           14.14401965676228        5.33006982277581        8.13948719851777
H           15.86453114050679        5.07963089605707        8.40116618011774
H           15.28783980552751        6.53969397573838        7.58876114924521
H           12.83814543555232        6.95142659047814        9.67934958006294
H           13.82801264808664        8.23549674469913        8.99144954308074
H           13.72905426267714        8.02635454517957       10.74136968143580
H           16.29295584402909        6.75399185148571       12.03998630370426
H           16.28318356695398        5.29086958611952       14.00192558112016
H           14.89962819467305        3.26828944582015       14.01867222671926
H           12.62696710971649        2.38414019375173       11.16842702775651
H           14.76436673152131        0.98678251935885       12.84914000246971
H           14.76908471169918        1.12856552371338       11.09548941194669
H           13.51730305913215        0.18039586269036       11.90437143597219
H           12.86880844512998        2.21213119710570       14.21008177685036
H           11.64052195862111        1.43162761018612       13.22601728294560
H           11.69980017284893        3.19215918948060       13.33414527184257
