76
 energy: -12.548456208576 gnorm: 0.000575819962 xtb: 6.5.0 (97a52f5)
C           -0.01846123591844       -0.65708711406598       -2.77861019439087
C            0.90401861546741       -1.75598552949739       -2.27574005462635
C            2.22066938504834       -1.81949868203173       -3.04694328646104
C            3.17296669648512       -2.88802197595605       -2.52662169015477
O            4.40443079945318       -2.87049409401412       -3.21505883595832
C            5.38152957435902       -3.51784846300808       -2.50228280717705
O            5.16605233739072       -4.12997216504316       -1.46868511441363
C            6.75983970534959       -3.45359794567745       -3.04018572401654
C            7.64697121421255       -4.46020319417060       -2.68735409130114
C            8.92594953747099       -4.49511476387183       -3.18971489227120
C            9.35118213746628       -3.51089430307628       -4.06608950886082
C            8.50507243735759       -2.49273861337024       -4.41988513743944
C            7.19422983484483       -2.41334076655514       -3.91246306587883
C            6.34876480467156       -1.25823058268632       -4.26443133317985
C            5.80161875757338       -0.40197284086433       -3.25844116166543
C            6.06682150743046       -0.58768100436618       -1.89312310169740
C            5.49084702837125        0.20410036139436       -0.93925638333163
C            4.61404074901591        1.24493169143506       -1.28717836209617
N            3.99001132186758        2.02819845720553       -0.29538640164825
C            4.51067245498599        2.05575064534429        1.08597251521615
C            3.90572822126299        0.98260434887132        1.96946182057331
C            2.92520621857103        3.00684012438861       -0.61441639647199
C            1.78074678546129        3.02976862484937        0.37962180856416
C            4.39302213069418        1.47023201941526       -2.64486836739377
C            4.96348440969409        0.67894282488661       -3.63351383937394
O            4.68943913139008        0.98029988224141       -4.95745150455624
C            5.22626188177850        0.15929230673805       -5.93579519467702
C            4.93390174974212        0.43922943535651       -7.26428090421941
C            5.39731230529387       -0.35173445698800       -8.31289530915052
N            5.09329897763673       -0.03705243319767       -9.64837746716819
C            4.26585259874819        1.12653568488240      -10.01790576988756
C            5.06539245050587        2.41224946516666      -10.03375820154747
C            5.60215852294914       -0.82842605934484      -10.78405127402294
C            4.74716626765636       -2.04684061885090      -11.06004103874375
C            6.17590488866847       -1.47373634580448       -7.98645487152852
C            6.48609836953818       -1.76621067401686       -6.68709820134669
C            6.04406721821060       -0.95832520978564       -5.62783293445451
H           -0.95311859679648       -0.61844863017939       -2.21606469148047
H           -0.27194818408169       -0.80586154923744       -3.82907845329093
H            0.45532409502859        0.32213586443162       -2.69724649954925
H            0.40093752237359       -2.72931374841177       -2.33556550663197
H            1.11666683037272       -1.60926916472648       -1.20923036161493
H            2.72212146169293       -0.84683554438369       -3.00417042185359
H            2.02882239653678       -1.99364801916896       -4.11103633231372
H            2.74628160522685       -3.89330481451250       -2.62782824604013
H            3.38326268356902       -2.73180904382813       -1.46097244796649
H            7.30767963755297       -5.22816060563014       -2.01341403504304
H            9.59587009448666       -5.28986098848924       -2.90596736320692
H           10.35325931289948       -3.54044700954592       -4.46094838041765
H            8.85179752800408       -1.71087404594529       -5.07333159866356
H            6.72493585586710       -1.38466259526680       -1.59644122846056
H            5.70362684465389        0.01482298419676        0.09652368995211
H            4.33165046089893        3.05191330058092        1.50251212252391
H            5.60025261988656        1.96130353622930        1.03948547450182
H            2.82939521369532        1.11560051649134        2.07523441471532
H            4.33743000125277        0.98800165213319        2.97198885088032
H            4.05775963924862       -0.01129639483094        1.54894860840425
H            2.52477123480604        2.77422817705947       -1.60387841345566
H            3.39367243533468        3.99267259734391       -0.69784236217461
H            1.32713866586479        2.04257717848498        0.47287022373202
H            0.99453733656647        3.72466630524870        0.07794719701392
H            2.11396931282612        3.33288822787960        1.37217427624793
H            3.79024520708547        2.29469714479757       -2.97007288417004
H            4.32378634833520        1.29824792575966       -7.46240838368736
H            3.41865965253147        1.18633363076451       -9.32807481906845
H            3.81971864773448        0.93585332179254      -10.99957896740045
H            5.51286402423978        2.60981974199188       -9.05934606572105
H            4.45148395463638        3.27450015099608      -10.30050133322040
H            5.88413707027246        2.35182093702337      -10.75166221469856
H            6.64161288169481       -1.10269687020253      -10.58068746109448
H            5.64537547678924       -0.17902303865940      -11.66460550888716
H            4.69292770153377       -2.69588667142295      -10.18566552085848
H            5.13288056788938       -2.63875828206034      -11.89193152030667
H            3.72439557440550       -1.75727901030861      -11.30381624592816
H            6.52844796940514       -2.12104265062864       -8.76821052376590
H            7.06707912501096       -2.64317255194191       -6.46484079022647
