84
 energy: -14.656847621094 gnorm: 0.000359748502 xtb: 6.5.0 (97a52f5)
C            8.03428803146905        4.09274522588155       -3.42537841731544
C            8.78106005033439        3.14344248139865       -4.34866085229830
C            8.36230471569482        3.28688135977390       -5.81313607223729
C            9.06397247005503        2.28071500268613       -6.73592842830307
O            8.29473450073755        1.12343936916718       -7.10772267280765
C            8.57484264888821       -0.05729058079448       -6.37591000928708
C            7.85580399183166       -0.25542434105970       -5.17356035144239
Br           6.46327910124459        0.92476389180235       -4.72489322628570
C            8.04405878138597       -1.34942559782626       -4.38717656613215
C            8.85015460204907       -2.41533633044038       -4.83249705143943
C            8.99305310642696       -3.59828494250535       -4.07684882407564
C            9.71636366231465       -4.64361752350914       -4.55780762893517
Br          10.01184465689636       -6.16542681705202       -3.49983265442905
C           10.28422798212878       -4.62217436975770       -5.84928311707528
O           11.13067496408021       -5.69200357646345       -6.19004178210442
C           12.41658081867350       -5.28716490520601       -6.67230333304708
C           13.23041812820981       -4.54916619627603       -5.62022063584795
C           14.61584336761138       -4.13761526229037       -6.11331638586875
C           15.42611482737361       -3.42124700864565       -5.04505509128155
C           10.02065229770621       -3.50574712864237       -6.69145997164208
C           10.23133281778536       -3.51623105573755       -8.13199617206605
C           10.17824722102331       -4.69878862608217       -8.91619260887202
O            9.69730963961463       -5.92970364311097       -8.41304070253746
C            8.30167328731144       -6.13467008181323       -8.65008167943288
C            7.42154798708352       -5.20867567139896       -7.82217189234797
C            5.92760152844543       -5.43608599339028       -8.03866472949320
C            5.06929769045617       -4.49577639041867       -7.20695829694893
C           10.52889462693968       -4.63011358789356      -10.28006959901431
Br          10.48321303668551       -6.23510031203618      -11.24985937053672
C           10.87241274092786       -3.45644395267412      -10.87368110046701
C           10.81994382296406       -2.24588002597768      -10.15071995010225
C           11.13979573284725       -1.00962125236553      -10.74956008081536
C           11.13971423801273        0.13447283390534      -10.01429858305141
Br          11.56060664129445        1.76535125631723      -10.84708609184343
C           10.77448354380698        0.13867524075155       -8.64745126834271
O           11.11533821180871        1.24082457570496       -7.84262596030953
C           12.49755860274283        1.60162681477729       -7.87990427170626
C           13.42542693935481        0.47519401267218       -7.44783378980267
C           14.90043473292338        0.86664467511181       -7.52110890286956
C           15.83069134886281       -0.25656270841013       -7.09472965524765
C           10.19910119045554       -1.04128327777385       -8.08822375119022
C            9.44128401734038       -1.09279322310401       -6.83409346352134
C            9.45523912200582       -2.32754476323099       -6.11377227693163
C           10.41443612813716       -2.26851153796951       -8.79038624623509
H            8.33909248090544        3.97504634024946       -2.38349459657185
H            6.95757212686162        3.92231624305001       -3.47366403902413
H            8.20863264480535        5.13320456781685       -3.70399316023857
H            8.62847406539345        2.10584932041270       -4.02689639239444
H            9.86341200084821        3.30686817938650       -4.26291699297663
H            8.56587947982075        4.31509728757411       -6.13894382016955
H            7.27809974671541        3.16446893255395       -5.91191486762902
H            9.99293028456489        1.92752573197123       -6.27467973641183
H            9.35382641685243        2.75147942970549       -7.68459058867149
H            7.49424661255492       -1.44317588285900       -3.46580382890822
H            8.54812649619459       -3.66602108577437       -3.09902570780366
H           12.28116165033148       -4.67086993611713       -7.56612488620776
H           12.93622032741015       -6.19514843317012       -6.99908892973175
H           13.32203310001493       -5.17988312080748       -4.72890157157680
H           12.67703542952075       -3.66401741229562       -5.28709522952715
H           14.50962024634722       -3.50064826503400       -7.00113357514178
H           15.15566790942252       -5.02692271621816       -6.46402701716043
H           14.91358229804728       -2.52241268998862       -4.69881333017919
H           16.41107095182947       -3.12152660198716       -5.40871197832220
H           15.57793200764067       -4.05858414845869       -4.17245606638317
H            8.08572809372190       -7.18392624652342       -8.41885723687506
H            8.11470081155912       -6.00262874889106       -9.72167902891862
H            7.67137976537856       -4.16726334420067       -8.05281659739153
H            7.66807793574418       -5.33274988832602       -6.76178085478705
H            5.68120641955242       -6.48019007047035       -7.80573076705113
H            5.69376826951803       -5.31862391651843       -9.10487656835765
H            5.26334103037072       -4.62483903366558       -6.14093901206615
H            4.00244445129550       -4.66192216042574       -7.36962332750531
H            5.28045085187986       -3.45261058892257       -7.44803223051245
H           11.15176527973129       -3.44819006912798      -11.91299004877451
H           11.41842998358004       -0.97319385169338      -11.78878121173145
H           12.62025004197620        2.47285610916734       -7.22622706297627
H           12.74354854077932        1.94235195187908       -8.89076986096632
H           13.24521281453106       -0.40630082185916       -8.07311224554117
H           13.16717608012254        0.16156245941247       -6.43032082320297
H           15.07088754143718        1.75539361957217       -6.89952390340932
H           15.13877065143396        1.18544457397502       -8.54436392410510
H           15.63831097711510       -0.55431041317904       -6.06317876381910
H           16.88134709846988        0.03314560886729       -7.16191929939660
H           15.69279953171313       -1.14121696538266       -7.71847740198968
