50
 energy: -10.779381566391 gnorm: 0.000943623032 xtb: 6.5.0 (97a52f5)
C            0.97446391567406        0.06800657910605        0.21867609057051
C            0.15652483398265        1.13498645593562        0.13810652205989
C           -1.30056273144579        1.07891538288454        0.16530527253961
C           -2.02643610371787        1.93757756265038       -0.62939733958022
C           -3.40856877576100        1.86727265468993       -0.66291642621445
N           -4.13977208351520        1.02446161201356        0.01871807171916
C           -3.46761185809742        0.17674216512571        0.84618625591607
C           -4.21256282652001       -0.72859853045641        1.63205864948368
C           -3.60580840139816       -1.56294236314894        2.52281280439416
C           -2.22052086167665       -1.52827555483103        2.68374168630655
C           -1.46514187592207       -0.67610734832068        1.93429398737194
C           -2.05545400912002        0.17665020997892        0.97671374961869
C            2.42379079228296        0.11203463621047        0.19443006033939
C            3.15301702429992       -1.08047906582658        0.18713299085890
C            4.52630781507058       -1.07280358611019        0.16782362712098
C            5.24209338571431        0.12778393969514        0.15797773558286
C            6.69173831113009        0.09987011437775        0.13033820023208
C            7.49809319504015        1.17651006174594        0.19811446335575
C            8.95555402107624        1.13631079941321        0.16415701216571
C            9.67591354421854        2.01042448405912        0.94691949254831
C           11.05893912605237        1.95628726589449        0.97318169542462
N           11.79598886713293        1.11568501131449        0.29513385585175
C           11.12903528468818        0.25264671934535       -0.52060712096506
C           11.88001233459984       -0.65120371716564       -1.30245323567861
C           11.27798179786127       -1.50049152967517       -2.18222449586653
C            9.89151161262970       -1.48303853658769       -2.33575162063116
C            9.13055308534111       -0.63282189297679       -1.58976814072796
C            9.71627639940239        0.23525335929330       -0.64317115438749
C            4.51307442459133        1.32060740984142        0.16619899947613
C            3.13941806056872        1.31295150585180        0.18572986060655
H            0.52815731770224       -0.90957850187715        0.26060579994287
H            0.59146128854220        2.10358464745561       -0.03242462311509
H           -1.50619051840453        2.64919161520901       -1.24740910858923
H           -3.94488143407046        2.54785426960585       -1.30661346069029
H           -5.28237104860484       -0.73866003810978        1.51826614969908
H           -4.19633946762199       -2.24250234858486        3.11531525066928
H           -1.74981973411032       -2.17257742150332        3.40825554941230
H           -0.40493754656449       -0.62503048033896        2.10255533678510
H            2.62140439654453       -2.01669516611302        0.19502733659996
H            5.06834313050853       -2.00302143226123        0.16053621730937
H            7.14870455353357       -0.87291440473667        0.09486632673948
H            7.05311492504056        2.14175555152113        0.36026370068358
H            9.15097134987145        2.72179044751270        1.56122692858509
H           11.59096640610529        2.64893174774116        1.60749622325165
H           12.95049405556363       -0.64785575586281       -1.19473174940351
H           11.87300168393879       -2.17858080776213       -2.77191592230266
H            9.42420619838788       -2.13928796819743       -3.05170330196835
H            8.06893175867742       -0.59538249289596       -1.75267879325166
H            5.03294234555973        2.26163633042334        0.15143074711578
H            2.60909203521571        2.24816640444694        0.19999984303881
