100
 energy: -17.202203648256 gnorm: 0.000505115077 xtb: 6.5.0 (97a52f5)
C            1.07694068556732       -0.21402243316241        0.45453365355449
C            2.48618119924873       -0.73823166050592        0.67966214258065
C            3.06179817030770       -1.43062261205581       -0.55424476058786
C            4.47826351153501       -1.94065598820396       -0.34458795325722
O            5.00737741003093       -2.57277470695097       -1.50497194681215
C            6.40634479371079       -2.55166706610464       -1.62261578924017
C            7.26449097827792       -2.54391937498259       -0.47167619205187
O            6.67340270860901       -2.46186316473027        0.79708933101997
C            7.56842385635052       -2.50026031514733        1.88787544380774
C            8.62839405288367       -2.62717286089904       -0.65111439556140
C            9.20238467023575       -2.81960190400706       -1.91916833426350
C           10.59251214698180       -2.92875702721699       -2.09241553508374
C           11.16254045913521       -3.09351143161625       -3.33625485373449
O           12.55021201426949       -3.09585658904507       -3.53682452269148
C           13.33228189917775       -2.92996611382033       -2.37352523427238
C           10.31018634260417       -3.25824195568107       -4.47978119867427
O           10.82673570200154       -3.32757798729324       -5.78358823817507
C           12.12708526333809       -3.89550716764834       -5.89945366947777
C           12.36215783721755       -4.53684344736325       -7.25738971462547
C           13.74549056757377       -5.17058249293574       -7.39015269272533
C           13.95955455816746       -5.83321248444569       -8.74171867220731
C            8.91130373982377       -3.27832895822349       -4.30747604236411
C            7.97389330249359       -3.64571250023900       -5.37102808697643
C            8.27836621142438       -4.55408283473180       -6.40967425856600
O            9.33696163778245       -5.48346486248621       -6.32898528613300
C            9.30541969280525       -6.27488758999664       -5.13902801569379
C           10.39913463850533       -7.33153402028824       -5.11246984534884
C           10.40670978381972       -8.14492462095664       -3.81918442537120
C           11.51503767209204       -9.18496224952579       -3.78459556383600
C            7.41550959125818       -4.62845842452848       -7.55479663303912
O            7.69828539547551       -5.41626442329323       -8.68633641096549
C            9.06843272524668       -5.61815693889045       -8.93062150035193
C            6.23284928242165       -3.92406020197101       -7.55385057478881
C            5.82285522526058       -3.15903673198735       -6.44933630860032
C            4.59437167726385       -2.47767077526339       -6.43952016047317
C            4.20347123395785       -1.69357848181479       -5.37777675317074
O            2.98436026644497       -1.00042318946535       -5.49818787152108
C            2.34130283435303       -0.73395085700785       -4.27626812995419
C            5.05576786188159       -1.59452228808457       -4.22664116295106
O            4.76181475268751       -0.58778205812667       -3.28277738299259
C            5.85292909053573        0.30613638301744       -3.05049188466054
C            5.48426112021975        1.44468398828861       -2.11183102797645
C            6.66339188293987        2.36734441095225       -1.80742097059742
C            6.29759705599322        3.49637359594081       -0.85730646572985
C            6.20089580474813       -2.41780187280708       -4.14019313632187
C            6.97319935054593       -2.61417797514792       -2.91173460232183
C            8.36233693490845       -2.90417861912370       -3.04624928071138
C            6.66571274113273       -3.07381880747743       -5.32096259959653
H            0.67553000508399        0.27780953134426        1.34304969305101
H            0.39358546952086       -1.02226198237809        0.18871013080718
H            1.05174199294297        0.51020296194155       -0.36141011871013
H            2.49981378875834       -1.43654325055217        1.52665890512475
H            3.15149471456610        0.08265308956526        0.97766220580092
H            3.05575995806318       -0.74084778436257       -1.40488560711567
H            2.41704191669133       -2.26393118442813       -0.85488490602154
H            4.51774460414712       -2.66814399712127        0.47444144234246
H            5.14600472124443       -1.11544008885504       -0.07255085874353
H            6.99244160902143       -2.46145010970196        2.81335073285759
H            8.23551005056168       -1.63776205364975        1.85453424594240
H            8.14064429611034       -3.42882522601625        1.87010538885217
H            9.28532465874118       -2.58578942718678        0.19615049539097
H           11.21517981832011       -2.83858221527425       -1.22334649060331
H           14.38562587914662       -2.94301183258762       -2.65642575999958
H           13.14647269794513       -3.74945758597091       -1.67791924495609
H           13.10722606491523       -1.97090524640191       -1.90501256601904
H           12.24767170693549       -4.63544841784314       -5.10020521576347
H           12.85416383793347       -3.09755246125608       -5.70896030850967
H           12.21267003406146       -3.78796911460481       -8.04307888139273
H           11.58900235409846       -5.29295894749687       -7.42990423313137
H           13.88742259771630       -5.90244909175851       -6.58424447102504
H           14.51322140801548       -4.40518237478059       -7.21730222580872
H           13.22603689533536       -6.62253532428099       -8.91405554830290
H           14.95135648368168       -6.28209120097776       -8.82600320271703
H           13.85444769247984       -5.11308837769288       -9.55484735016678
H            8.31441653296109       -6.73844269107031       -5.07204797883966
H            9.40147055315140       -5.60937014932557       -4.27596269970814
H           11.37194867772850       -6.84821199609256       -5.25197326540785
H           10.28464364253443       -7.99630235550097       -5.97598849099919
H            9.42948611528151       -8.62797774102316       -3.68896967159741
H           10.50285221095570       -7.46300102924379       -2.96399971640089
H           11.41510888114807       -9.89525147846285       -4.60692800994980
H           11.51208656008637       -9.75638757428425       -2.85406873334458
H           12.49666727461858       -8.71786775830939       -3.87987852231559
H            9.20455105858451       -5.95465912436792       -9.95939193456476
H            9.44622525420750       -6.38168958550884       -8.24990777574532
H            9.61154732284637       -4.68417890259374       -8.77902977007500
H            5.59440405383712       -3.99400313470254       -8.41462088129443
H            3.94950651175068       -2.53843644699010       -7.29621718343405
H            1.29501124219836       -0.49048555815995       -4.46598913107061
H            2.82572176448809        0.11471300200281       -3.79255805763584
H            2.39876654320235       -1.61170060252594       -3.63113690334973
H            6.18185417884747        0.69300680521811       -4.02191357058424
H            6.68974738983476       -0.26612268760993       -2.63914696839689
H            5.08791338795589        1.02970226887207       -1.17894997877910
H            4.65671034228018        2.01904081433606       -2.54291209470187
H            7.05642522147556        2.77574162387366       -2.74755213414532
H            7.48717530959348        1.77442300316050       -1.38882233811471
H            5.50542072603765        4.12088679547046       -1.27329352193863
H            7.14980039687903        4.14475288337812       -0.64384322709386
H            5.93404325826432        3.10742301889320        0.09518382181596
