86
 energy: -16.918906370777 gnorm: 0.000499559907 xtb: 6.5.0 (97a52f5)
C            0.83018463132957        2.23900204258283       -3.50246766333645
C            2.30268131293283        2.18943618188478       -3.87869581832078
C            3.11054406493996        1.24794943860060       -2.98621498493974
C            4.58578570132499        1.20002231651784       -3.35823362231469
O            5.32952484929435        0.32725995707570       -2.50851070003890
C            6.71020130533853        0.32841671919688       -2.72409891795004
C            7.33656440808855        1.02846982712497       -3.74436127888246
C            8.72273603994184        1.04360844077721       -3.90621596905654
C            9.35407447913025        1.73827077184089       -4.98904851685815
C            8.86566907178746        2.80242333368555       -5.71316790677980
C            9.37307205054926        3.20566393026127       -7.02181442680161
C           10.40066276956791        2.68285756619851       -7.80409768052450
C           10.64465803079369        3.23768221434237       -9.04147962206819
C            9.87928218956569        4.30085578035833       -9.51281098077970
C            8.85638782187404        4.82634618721237       -8.75278013042436
C            8.59903341132072        4.27360126416937       -7.50299854242996
C            7.61676854032046        4.61564057842924       -6.48317061818461
C            6.67367614724630        5.63691513098261       -6.43799602235315
C            5.93172651862468        5.80679651707807       -5.28949087858247
C            6.13941592044949        4.98913743262835       -4.18328870416003
C            7.07189201314828        3.97589122946207       -4.21746932826355
C            7.79748004761208        3.75169009377137       -5.38753991342630
C            9.52832854962664        0.26409937503411       -3.02412050171301
O           10.90529450332629        0.26737870677420       -3.23124503627878
C           11.65038555781165       -0.54684400098057       -2.32629079418436
C           13.14412883139017       -0.51295091662952       -2.61519262184302
C           13.95440185012509       -1.38028921986744       -1.65265801869831
C           15.44627327739114       -1.34823330278867       -1.94392438782295
C            8.89637572623982       -0.44486299568840       -2.00863129263168
C            7.51704823132899       -0.44569760652079       -1.83632784134133
C            6.86854874684907       -1.14667484079676       -0.76474370597715
C            7.38622986239369       -2.11120106370167        0.06141250746354
C            6.58154182912479       -2.57224611941314        1.21084193574730
C            5.25970900510679       -2.97786390775032        1.01498668923590
C            4.47448392067720       -3.38212158494536        2.06880746203380
C            4.98970969273947       -3.38139147327721        3.35065400000279
C            6.28673255037526       -2.97752392793668        3.57096808523439
C            7.11413336802583       -2.57515198529086        2.52003516839041
C            8.45634280678985       -2.09449315799829        2.83058613877036
C            9.56736989500673       -2.18429426902766        2.07404612122093
C            9.70427848231481       -2.80658443922441        0.76359801308842
C           10.91809962685720       -3.41009529272059        0.42736695809523
C           11.10468280906048       -4.01641622022584       -0.79370107653573
C           10.08125080835230       -4.03019327524322       -1.72139946432771
C            8.88269016702860       -3.42415789940434       -1.42705162949404
C            8.67252826606334       -2.78997668247410       -0.20005806259049
H            0.26452607895436        2.91620564596678       -4.14622809143355
H            0.69705131746601        2.57745417207135       -2.47335876447899
H            0.37024561848943        1.25216446180323       -3.57860362590437
H            2.73874228961062        3.19609023491559       -3.83161021309503
H            2.41541951579119        1.88103418041274       -4.92652290696418
H            2.69250648750300        0.23594404281931       -3.03149923894494
H            3.01262276285353        1.55070295465667       -1.93747423559607
H            5.02219309275934        2.20219936132974       -3.28793781989921
H            4.70631434444070        0.85684904803574       -4.39185077610863
H            6.74017183800548        1.54584912329183       -4.46997834519115
H           10.31160845818702        1.34600886928228       -5.28888375756435
H           10.98717103061192        1.85726720625623       -7.44156670688566
H           11.43776804664303        2.84163208268924       -9.65449434478769
H           10.08870561891013        4.71758518945075      -10.48442265653709
H            8.26099670193532        5.64850666534124       -9.10911436278137
H            6.54585270012655        6.28689867665971       -7.28569796522045
H            5.19836266695838        6.59489412074444       -5.23918479351360
H            5.56975609371168        5.15769386735412       -3.28392367472309
H            7.27138099677691        3.38860714549519       -3.33948723605359
H           11.27442789017878       -1.57311893582549       -2.40160504950245
H           11.45574427676434       -0.19506209571245       -1.30684443150309
H           13.49690286759503        0.52389286055292       -2.57399438739360
H           13.32012922966293       -0.83376308116777       -3.64826067906731
H           13.58323608315689       -2.41253343023103       -1.69639029752021
H           13.76269992633274       -1.05387308496106       -0.62189318537638
H           15.65859693614467       -1.70353769212679       -2.95377911789312
H           16.01342448299874       -1.97251354593899       -1.25002325181997
H           15.84107304275263       -0.33340521468200       -1.87031673883473
H            9.49553588062881       -0.99632128224743       -1.31396994414610
H            5.85397338787319       -0.84270268796200       -0.57310041443885
H            4.86003795590831       -2.97826443672746        0.01527725473679
H            3.45787568717979       -3.69586963168392        1.89533653850633
H            4.37350246582576       -3.69326653106490        4.17823441295266
H            6.68087318667468       -2.96945763162524        4.57309597036062
H            8.56570974392512       -1.66546612299322        3.81447111498980
H           10.48844404860932       -1.82341348864807        2.50436108187076
H           11.71619440126510       -3.40758504458234        1.15021675339679
H           12.04720700568956       -4.48531370136478       -1.02508245505559
H           10.22487519067214       -4.50801204607208       -2.67680296633317
H            8.08706096116298       -3.42118107744677       -2.15236711161584
