118
 energy: -22.256820658689 gnorm: 0.000258306228 xtb: 6.5.0 (97a52f5)
C            6.45222068064008        4.33263543297187        1.21899236693213
C            7.39507049560902        3.46580457002140        0.39928127332720
C            8.12618215370131        2.42370479403357        1.24500615015023
C            9.05954258914711        1.54030996035925        0.42785402113983
O            9.71248535369551        0.56125880461852        1.23415602052058
C           10.45823446725710       -0.38294355512804        0.52452629905613
C           10.97314254087472       -1.47123172652972        1.23967020971398
C           11.69016847549525       -2.45832009294854        0.61532418938468
C           11.94648648581712       -2.40415069201706       -0.75852971626347
C           12.65300381046696       -3.50482038422927       -1.44976301909564
C           12.10261070447940       -4.03083162574084       -2.61255455827876
C           12.62344130552048       -5.14048646695772       -3.26710427137697
C           11.99190395623814       -5.58461751338647       -4.53110023108250
C           11.73623980527674       -4.65770101270113       -5.54707515827451
C           11.20113521790074       -5.05110651031478       -6.74564254628424
C           10.90317937206092       -6.39539747486742       -7.00024097469267
O           10.41664234858729       -6.72999040543835       -8.27091716401370
C           10.71490048547343       -8.05869809560116       -8.70558046928107
C           12.21027757233458       -8.31057424533688       -8.85958394156740
C           12.53689994820989       -9.71319227788718       -9.36965837842228
C           14.03214301147407       -9.94987921284163       -9.51557974826254
C           11.11420904052922       -7.31604762014987       -5.96534190918219
C           11.63497446139028       -6.91769334096427       -4.76041617972974
C           13.77426901227426       -5.77751881085605       -2.72088453720410
C           14.33452720925821       -6.94699696941283       -3.29433598092025
C           15.42226042954894       -7.55279808760307       -2.75808738471593
C           16.10621559850611       -7.00637481892582       -1.64254013712379
C           17.25880173860386       -7.62611408908994       -1.08024524760359
C           17.75788004273429       -8.94258156590863       -1.54027594779313
C           18.00050290689347       -9.95997381758896       -0.61113076172508
C           18.39785941656446      -11.20759571526384       -1.01525716434336
C           18.56131490899254      -11.51091630234350       -2.37241731890516
O           18.89469508142074      -12.82780618872731       -2.72106694493015
C           18.36349345496709      -13.27255187246445       -3.97213831528350
C           16.83943360533677      -13.27205830072941       -4.00131585573468
C           16.25896223734750      -13.78375950893189       -5.31857391537023
C           14.73814840338849      -13.76996567143546       -5.33205403138530
C           18.37167372414476      -10.47698849466916       -3.29882902617206
C           17.99055208986876       -9.22412052201105       -2.89081454811089
C           17.90521699599059       -6.99632800319226       -0.02356945058289
C           17.47672227677043       -5.79224816217510        0.52281861411529
C           18.30565829714122       -5.14342679967653        1.56164485392201
C           18.62610014288440       -3.78393435840996        1.49084324009205
C           19.44399266281629       -3.20085911348685        2.42326226835846
C           20.00610366910433       -3.94644839679377        3.46706515899267
O           20.84777824091894       -3.27385542342293        4.35866856297308
C           21.68263548470971       -4.10474331658822        5.16664440722659
C           22.76824455980137       -4.81659249297042        4.36816380799691
C           23.67562047620431       -5.68919807507311        5.23412157822326
C           24.75768357378852       -6.39089147473897        4.42834545413236
C           19.68429457553959       -5.30807119489717        3.53730025967166
C           18.85932260351033       -5.88860142726976        2.60763468088272
C           16.27129935197154       -5.21235944330341        0.03515494585490
C           15.69700234820832       -4.05913888710279        0.62865149076467
C           14.54599065676392       -3.51611537106984        0.16062430527253
C           13.85635921899833       -4.07416275864515       -0.94580952690038
C           14.40426348288746       -5.22147037590898       -1.57646437629587
C           15.60061073650627       -5.81359352093878       -1.06188107920487
C           11.44015007991518       -1.31384667483947       -1.47348225382627
C           10.71878802397415       -0.32686638569453       -0.85072942758781
H            5.93616545145740        5.07288226377610        0.60377764337024
H            6.99085142314787        4.87227801119356        1.99987135546606
H            5.68990264815645        3.72784979609094        1.71331537856716
H            8.13176293615481        4.09336695678984       -0.11934761674938
H            6.84088896833881        2.95821891210119       -0.40129861059048
H            7.39988629007796        1.79149550506519        1.76846214596369
H            8.69791487920501        2.91778207834663        2.03871036463239
H            9.82781992950768        2.14689569214833       -0.06439426647145
H            8.49589870665849        1.01935493865403       -0.35433626728674
H           10.77445573581094       -1.52482759867000        2.29545742291516
H           12.03610835039967       -3.30897023165600        1.17699396635108
H           11.20702314637399       -3.58269007395160       -3.00374883464307
H           11.99108867248260       -3.62468723355195       -5.38376391744299
H           11.02616691130001       -4.33421238368466       -7.52822869680986
H           10.20875053700271       -8.19569296852536       -9.66822277849779
H           10.24982111753024       -8.77358355908143       -8.01963543439905
H           12.71339239413049       -8.13956756714866       -7.90163488465944
H           12.63228794993933       -7.55961859998624       -9.53727589668683
H           12.03258153292703       -9.87618396957952      -10.33122952975726
H           12.10084205207115      -10.45691983669451       -8.68979470769856
H           14.47741034694468       -9.23953234853369      -10.21449933190893
H           14.25526341712236      -10.95442369537620       -9.88140228244746
H           14.54613542996336       -9.82624187621938       -8.56068863460661
H           10.85279631570670       -8.34783324476553       -6.11269161189225
H           11.75941160697938       -7.63399079591445       -3.96642672406718
H           13.88457853055903       -7.36288479213037       -4.17680444911357
H           15.77578047513604       -8.47128506754424       -3.18867403185972
H           17.84186925930908       -9.75732848156863        0.43410524433192
H           18.55961539694589      -11.99041794421420       -0.29553479072055
H           18.74424196986603      -14.28761685103802       -4.13391561825376
H           18.78482222300481      -12.66259141769751       -4.77727458253699
H           16.46831167910787      -12.26050418767947       -3.80335085858011
H           16.46458772808783      -13.87771300638589       -3.16830325249587
H           16.63004711427797      -14.79947772179311       -5.50861150057018
H           16.64993965435807      -13.17809908485095       -6.14668373795083
H           14.33112668929769      -14.39301613015099       -4.53364806676704
H           14.33227304514984      -14.13921688590365       -6.27629893090084
H           14.35143735131492      -12.76059805027978       -5.18050036654306
H           18.53849493757530      -10.66628896329777       -4.34338189878239
H           17.87916524175873       -8.43477806588854       -3.61437754045418
H           18.80149265478568       -7.44559609284133        0.36475106056462
H           18.24642522320990       -3.20068396712670        0.66965972580577
H           19.68800378961138       -2.15528000714726        2.35796983859264
H           21.05637883233500       -4.80744905113228        5.72543372543998
H           22.13904191552947       -3.45215548440680        5.92012978918759
H           23.36739344096949       -4.07090826428774        3.83320457528517
H           22.31053969047639       -5.42555485431512        3.58120132869158
H           23.06443256718177       -6.42741885954580        5.76986670547040
H           24.12992189263095       -5.07192982964172        6.02032100302440
H           24.32333222846708       -7.03632074007512        3.66285287812355
H           25.39974413091123       -7.01204939564496        5.05657156843892
H           25.39760008541004       -5.67037677261766        3.91590787174611
H           20.08423581989065       -5.91044369086168        4.33200790185709
H           18.62252065634584       -6.93619652331208        2.67982616862960
H           16.17670713974375       -3.62384956898863        1.48689450390497
H           14.15408735003288       -2.62671845538172        0.62073030231824
H           11.62877581558457       -1.25552837164410       -2.53169671664753
H           10.35047712111030        0.50058949162303       -1.42928876072536
