49
 energy: -9.330734171182 gnorm: 0.000504961604 xtb: 6.5.0 (97a52f5)
C            0.90152675358471        0.27608617766707       -0.09863539001269
C            2.38144803095052        0.62491803577697       -0.12282187310186
C            3.00362081258682        0.66632203521550        1.27274080477245
C            4.48637110535809        1.01183325898810        1.25656424353968
O            5.04597352222689        1.01634204293501        2.56746314941097
C            6.41683213789169        1.25825322137985        2.62334158851653
C            7.03208476036977        1.19813309963033        3.88041618360206
C            8.37717944472017        1.41116868649220        4.02533087894564
C            9.18626295114258        1.70235314118466        2.92073410425441
C           10.60378318847252        1.90993936210255        3.10901312558091
C           11.48525692794070        2.25515983796217        2.14723982077776
C           12.87767147044874        2.42551290992064        2.39209188353838
C           13.76145904633652        2.78965681738846        1.43781377471861
C           15.15755988661375        2.94097761669174        1.67970134741984
C           16.03482044466971        3.31673252023442        0.72761139880053
C           17.46450258926460        3.46998302060630        0.90728847328217
C           18.24701625055050        3.93287914056332       -0.15521549189927
C           19.60640144549124        4.08308298807900       -0.01902965506392
C           20.22831847980915        3.77574060126374        1.17672305532282
N           21.67667156423930        3.93477066860441        1.31837845898839
O           22.31561558764257        4.43842796408263        0.37960828268128
O           22.21675760904398        3.56056422718417        2.37265973933200
C           19.47025053048175        3.31551253588068        2.23725166145473
C           18.10976319911845        3.16362871439741        2.10958490644220
C            8.57171937358642        1.76962217356720        1.66413649657265
C            7.22559444653479        1.55422896969403        1.51796159185110
H            0.47097900306176        0.24719236969691       -1.10153328780101
H            0.33400520612542        1.00520393598293        0.48154106753433
H            0.73420212595130       -0.70018964113411        0.35879980351672
H            2.53273876667367        1.59376029566882       -0.61597732914637
H            2.92881290099098       -0.09774602361909       -0.74168548278834
H            2.86602410227972       -0.29899855223853        1.77242144365014
H            2.47144042668025        1.39010841520277        1.89987092626129
H            4.64331976428535        2.00203575202620        0.81445078055977
H            5.03910412123407        0.28318652240651        0.65301028557785
H            6.41807937805258        0.97404277693673        4.73454052806587
H            8.82722241353738        1.35466762214156        5.00146354265663
H           10.98172908416976        1.77374577627543        4.10697680880638
H           11.13730342101051        2.41363648901146        1.14334889337328
H           13.23931732211888        2.24880489066430        3.38979008471543
H           13.39947744050554        2.97132305816564        0.44103822011612
H           15.51048544429285        2.74151171463806        2.67463364920958
H           15.64850801314851        3.52224986160676       -0.25524477737778
H           17.77076274793640        4.17439530363454       -1.08973744983880
H           20.20569715186611        4.44104591005876       -0.83817643893171
H           19.96579898883364        3.07667275247418        3.16240908259987
H           17.53993924622050        2.79726998633404        2.94394830911500
H            9.16573220952310        1.98778212266759        0.79508743716100
H            6.78699916241403        1.61544889392822        0.53895134323999
