43
 energy: -8.193888948594 gnorm: 0.000503508109 xtb: 6.5.0 (97a52f5)
C            1.03619126061962        0.20009614896884       -0.15182833093255
C            2.49308100560265        0.54585795547044        0.11307312959975
C            3.08078335996724       -0.22669989578956        1.29427136418750
C            4.54672993760362        0.09566263182591        1.54846433959367
O            5.07502265407672       -0.64982578004756        2.64179802074408
C            6.43339038599868       -0.45408782700025        2.88718662866520
C            7.01701888437526       -1.20260931490140        3.92912735377709
C            8.34127649786632       -1.08112382517943        4.23129180854201
C            9.16277489801580       -0.20187116151795        3.50924291534570
C           10.53897748322689       -0.05128455946147        3.78737420612809
C           11.32026581969337        0.80462826076594        3.08074302163740
C           12.75503811471150        0.93397240006869        3.39009358041526
C           13.41984020142386        2.15013953275059        3.25029489396380
C           14.75601320142172        2.27188565636881        3.55679445795682
C           15.48079855883785        1.18321664989018        4.01876954376024
C           16.93385984694680        1.30583578625917        4.31982672323964
C           14.83037029567118       -0.03494086087792        4.14876156517630
C           13.49338175737029       -0.15904805232073        3.84432225577520
C           10.71055735065488        1.59669859879430        2.00038926290509
O           11.40789152355844        2.36822085643610        1.35513868517360
O            9.36223956884037        1.45369599917953        1.72608793801192
C            8.60135442453159        0.56369817305714        2.46798550086242
C            7.24699870584937        0.42128184065864        2.17856039229621
H            0.62917278961197        0.76036176777975       -0.99619213963165
H            0.41465696949810        0.41857934660731        0.71794644967218
H            0.91732807439678       -0.86151478327092       -0.37451369732930
H            2.59832575023813        1.62293020666310        0.29635241544193
H            3.09523735065619        0.34991712478109       -0.78341054960726
H            2.97516424466635       -1.30433546403833        1.12612688760619
H            2.50314205396409       -0.02175497028462        2.20255382806478
H            4.67155950649234        1.16150710303551        1.77033033983034
H            5.14426388791354       -0.13430360698151        0.65922248421898
H            6.38819252476227       -1.87806956728713        4.48117804402307
H            8.77158681407273       -1.66171053688165        5.02889069154865
H           10.96482763949305       -0.62045063624724        4.59312229596912
H           12.87081227266590        3.00001279109625        2.88388463724693
H           15.25260864590804        3.21900705528878        3.43362793365257
H           17.18775988604979        2.32035472343778        4.62852126068466
H           17.53209199367211        1.06093248242328        3.44163107185063
H           17.22605354483235        0.63215009387889        5.12589896619242
H           15.38659965377697       -0.89150449604660        4.48913837965415
H           13.01286472753872       -1.11734821469344        3.93636604503341
H            6.84460593292622        1.01696036734216        1.38300539905515
