39
 energy: -6.758706574369 gnorm: 0.000214685548 xtb: 6.5.0 (97a52f5)
C            0.83996026526774       -0.38784623895053       -0.49180220156009
C            2.35884056621805       -0.31513285891791       -0.45988050271716
C            2.90205010637908        0.97428517249340       -1.07963795832959
C            4.41682918813776        1.06165960137728       -1.04188798504125
Si           5.11511070412035        2.65469979482125       -1.77478866316662
C            4.50638260224964        2.79497413098740       -3.54128460987269
C            4.49350097717571        4.10277717049729       -0.75135882421618
C            6.98186762381918        2.63149223262156       -1.76894271290104
C            7.60739160470104        1.48904345539404       -1.36826729316279
C            9.00628762753620        1.39683083463419       -1.34659006334607
C            9.77014131987808        2.45645607537591       -1.72802239833383
C            9.16557920930607        3.66235752968737       -2.15066120822265
C            9.93754827673106        4.77839661291323       -2.55105180297942
C            9.33653987448301        5.93149824798230       -2.95526533757971
C            7.93967906888334        6.02856274309573       -2.98087953260130
C            7.16724409135928        4.97242788299136       -2.60207938824424
C            7.75040479549755        3.75531520076923       -2.17390494793793
H            0.46323738901676       -1.31331518350407       -0.04979641423844
H            0.46353651728973       -0.33569609634722       -1.51550082211370
H            0.39341654689211        0.44380514746265        0.05719821492505
H            2.79106529292131       -1.17887896085509       -0.98300705134495
H            2.72025231786420       -0.40012924394992        0.57391077809191
H            2.46761372216716        1.84007616534317       -0.56486800741773
H            2.55360239626122        1.05900450629365       -2.11668155216810
H            4.86054451435860        0.23063844027965       -1.59325368737978
H            4.78431036855919        0.99750430605236       -0.01580657489201
H            3.43062958957419        2.94694509348214       -3.55455411400193
H            4.73771961643935        1.88064426627444       -4.08088248109340
H            4.98175037297510        3.62790890756058       -4.05098132795809
H            3.69199598905042        3.78604914012740       -0.09014091138242
H            4.11562644260493        4.89205259201205       -1.39568033958465
H            5.30188137220019        4.50193995831603       -0.14445329693034
H            7.01864499863922        0.64140645824950       -1.06197297438951
H            9.47515459442761        0.48062666564180       -1.02577913850551
H           10.84453288061350        2.38804783018019       -1.71287894398229
H           11.01138401074098        4.70256208588490       -2.53100619282076
H            9.93560469288923        6.77542395114016       -3.25720406379295
H            7.47602855702479        6.94732403143721       -3.30212637487652
H            6.09625991549049        5.05818235107454       -2.62558929391405
