87
 energy: -16.730642520082 gnorm: 0.000412457117 xtb: 6.5.0 (97a52f5)
C            2.01898662573807        0.48231758049354       -0.86013698450925
C            2.52332917743923       -0.23415571872263        0.38291310700356
C            3.20993881872496       -1.56221901746838        0.06309908592879
C            3.71323651033228       -2.29342994797444        1.30804838651368
C            4.37384074764454       -3.60647638203967        0.98890101070473
C            3.60599846843789       -4.78601612252535        0.92417904856664
C            2.19335398243906       -4.78204626708656        1.11266023422946
C            1.46990152973574       -5.93060981491729        1.08245993486892
C            2.10158982991027       -7.16220503717638        0.86259565718994
C            3.44319914000591       -7.21402364613088        0.66069850222228
C            4.23823843076996       -6.03979645342690        0.66642362925250
C            5.63379195409109       -6.10470159096266        0.44285301293839
C            6.29685848049706       -7.40910402638473        0.18654700311086
C            7.24394649510052       -7.92005365511251        1.08078553046405
C            7.86168906238136       -9.12170093882540        0.84139421350632
C            7.55759269879694       -9.86150266276022       -0.29721139433692
C            8.22362948874799      -11.13591745372818       -0.54353718513732
N            7.95789231658722      -11.91041278077789       -1.58590247073725
C            8.77273677230274      -12.98330453316336       -1.45036526935357
C            8.90316351177545      -14.13362256929513       -2.24252212307414
C            9.80123409193929      -15.10723102181068       -1.88029732418766
C            9.89852329890752      -16.37336127840549       -2.67177796335030
C            9.08717489992010      -17.51953439725179       -2.06815756431726
N            7.68993911216625      -17.16040956160727       -1.88959140040452
C            7.23453241944311      -16.57589541677763       -0.71654904304230
O            7.93635822767889      -16.56581395308310        0.28159776764536
O            5.97856594553510      -16.02611898257140       -0.79634544620530
C            5.51952865377378      -15.35936392703954        0.41296813479320
C            5.42591150407253      -16.36383627092589        1.56805936587648
C            6.46067096969474      -14.20272164324515        0.77149032809135
C            4.12121495698105      -14.79536366176880        0.11899427261628
C            9.20149850493006      -18.76399037341305       -2.92347404636077
O            8.67111457986032      -18.78580022613453       -4.01194357368661
O            9.93487846882950      -19.77884130786942       -2.38060795985980
C            9.98051856670715      -20.86328595494271       -3.25812254216157
C           10.57929683230656      -14.94487633793862       -0.71577582639546
C           10.47144331056399      -13.83733485876972        0.07744120988803
C            9.55808769202621      -12.83571842946028       -0.27517542293807
O            9.19209556109586      -11.64693327900157        0.29658922148652
C            6.61417293484021       -9.36154979359535       -1.19064390820347
C            5.99661211814281       -8.15883266859688       -0.95603081901822
C            6.38948619626527       -4.90852171217069        0.45714651570915
C            7.78106703872346       -4.92317802082125        0.18455817189842
C            8.51385037915357       -3.78034453386718        0.17794224565577
C            7.89812169802833       -2.54818329016594        0.43639678415592
C            6.56700411645679       -2.48509335664227        0.69674511797567
C            5.75655673562364       -3.65701573704657        0.72350682078454
H            1.53606800275921        1.43132696139140       -0.61842717130503
H            1.29275085190246       -0.12813236478025       -1.39921813001768
H            2.83639573973818        0.69585912439352       -1.55072690067781
H            1.69275735998475       -0.41409767538305        1.07757819027827
H            3.22038782467590        0.41043079185889        0.93378201721683
H            4.04592300675738       -1.38983565700355       -0.62458034961959
H            2.52019402762748       -2.21076012943094       -0.48931680020620
H            2.88887351512486       -2.45236873372168        2.01041512888345
H            4.40330995221792       -1.65426655677103        1.86786154073463
H            1.68071312182275       -3.84999785720467        1.26606569202260
H            0.40250950372333       -5.90010541510616        1.22821042872795
H            1.51688681789328       -8.06729116455070        0.85084522521610
H            3.92081228592510       -8.16343175688124        0.49710192966048
H            7.47806507285714       -7.35661425337837        1.96743589195366
H            8.59036869933607       -9.51058105058940        1.53152450169003
H            8.28241413743931      -14.25248236394065       -3.11074982509055
H           10.94794247231648      -16.67012970737040       -2.76982288548376
H            9.54426745442998      -16.19506981088168       -3.69147424880580
H            9.47699401939938      -17.75699535483443       -1.06822014890695
H            7.15974494778293      -17.07106109617037       -2.75075386286651
H            6.40694302018469      -16.77565297601629        1.79570308821883
H            4.77011884572065      -17.19009239733904        1.30011417192894
H            5.03595301681399      -15.89202864969510        2.46863714961104
H            7.46264854383887      -14.57386313261301        0.97581681371131
H            6.10939087727059      -13.66510254225979        1.65065891215779
H            6.52894691666814      -13.49969517701463       -0.05586505672149
H            3.43948381429993      -15.59783832341225       -0.15638617321260
H            4.16379583320201      -14.09420653958217       -0.71243044300718
H            3.71334273544684      -14.27795918130403        0.98601634695579
H           10.56685911146239      -21.66701486436027       -2.80753518351787
H           10.44536977456757      -20.55170294261841       -4.19617324995752
H            8.96494042032855      -21.21509150844698       -3.45299249955668
H           11.26263571553339      -15.73063764235989       -0.44313607349873
H           11.05945034131342      -13.72420786744391        0.97021469392300
H            6.38046613072985       -9.93313095257762       -2.07145426603772
H            5.27786664149301       -7.77173119850036       -1.65745501731295
H            8.25762132435745       -5.86280479308314       -0.03071921879739
H            9.57025505864640       -3.81556619557027       -0.03178023483820
H            8.48834647388295       -1.64663014093502        0.42069660531018
H            6.11666373540456       -1.52422787148203        0.86670336548793
