76
 energy: -13.514590352239 gnorm: 0.000969040405 xtb: 6.5.0 (97a52f5)
C            1.30676232185774        0.90352775215476        0.81720192940308
C            2.62083745202288        0.40634650619518        0.23518018312122
C            3.16934750186151       -0.81519739455057        0.97257751696223
C            4.49428105387765       -1.31919599458329        0.39878026130392
C            5.03297153203306       -2.50972362132947        1.13880563950935
C            4.81459555774626       -3.76988832222371        0.62647729000491
C            5.25432179974004       -4.93357230460174        1.25810720691925
C            4.99439854084394       -6.24847864835501        0.63232956922707
O            5.72330642788562       -7.20263527025306        0.80380316499729
C            3.79133300893383       -6.38599766119702       -0.26691173588936
C            3.19717936046641       -7.79067277828962       -0.24433547890263
C            1.99413891706305       -7.93919831856707       -1.16244066548132
C            5.94603116739623       -4.81774446499597        2.48739106893416
C            6.41683256154845       -5.95094432566573        3.20043835743894
C            7.06848099285485       -5.83531431355107        4.38262463769867
C            7.30907227983214       -4.56744768216745        4.97531988549633
C            8.00932802631193       -4.42533264549938        6.20127033320869
C            8.51610244286414       -5.61945922259422        6.95777422485978
C            7.43002046817527       -6.28728820983810        7.80244273424396
C            7.92767185357069       -7.51989036522819        8.55744296201243
C            6.83512772466607       -8.18565387066019        9.37902303282299
C            8.17117353603349       -3.17646226616155        6.74639152037008
C            7.67298469744677       -2.00815115119252        6.14362702394933
N            7.77694516023711       -0.77364202550201        6.81059377948903
C            8.90389630254699       -0.47448862066588        7.72501721645043
C            8.47395202849820       -0.55082632412101        9.19340402254260
C            7.27869938300174        0.38048458342381        9.45088130496799
C            6.12587378506057        0.06705034064835        8.48287480720544
C            6.59928896788864        0.11118154687480        7.02466659769963
C            7.02707813512400       -2.12540640604437        4.87883367268547
C            6.61501414732403       -0.98667792156585        4.14437958633952
C            5.97912046498712       -1.10043264819281        2.95208836474418
C            5.71348272892657       -2.37054411290996        2.37024629785474
C            6.16317336233032       -3.53256892309639        3.04990744834480
C            6.83349749734384       -3.40815698178993        4.30694315738287
H            0.92364220710785        1.77447511299856        0.28064262105854
H            1.42166269216299        1.18739836886495        1.86495715423441
H            0.53866477197889        0.12894121599642        0.77644804222051
H            3.37064725149491        1.20838895133563        0.25562655106841
H            2.49552862106636        0.16206567639667       -0.82805086660749
H            2.42993778482540       -1.62502493931825        0.94899554357021
H            3.29359067741144       -0.57901474373044        2.03610430916229
H            5.23873274410826       -0.51585477067122        0.39484344930851
H            4.36070374775280       -1.57772400586657       -0.65810313616413
H            4.29871254426470       -3.85414941172481       -0.31305841537497
H            4.07859652928812       -6.12028194144549       -1.28973851903053
H            3.02519253733203       -5.66219576714973        0.03122457588236
H            2.92468992609814       -8.04975175735168        0.78726384922543
H            3.97763651352372       -8.51218885235540       -0.51946182173668
H            1.19480200769125       -7.25190839481876       -0.87959741462623
H            1.58228583283866       -8.95060290232058       -1.13921002273381
H            2.25839012744232       -7.71624883380993       -2.19779585697118
H            6.25507438902424       -6.92407788600530        2.77488922682070
H            7.40905837510763       -6.72317129443015        4.88483795471003
H            9.34763683756624       -5.31391767742185        7.60355339861051
H            8.95710616508374       -6.34102975209890        6.26170890303456
H            6.58350299462291       -6.56344676717421        7.16257088929334
H            7.01910654414016       -5.55876461451865        8.51228643771241
H            8.76754840680423       -7.23423416643446        9.20485149385367
H            8.35333439498125       -8.23630391485279        7.84168793725377
H            6.42043113087865       -7.49596244155653       10.11739226535413
H            7.20141289797852       -9.06296609150037        9.91719297230088
H            6.00853956413132       -8.51195021795947        8.74429790449001
H            8.65744980132136       -3.09426548662566        7.70075048713255
H            9.26661285461375        0.53105202070472        7.48906573724851
H            9.73583573611265       -1.15230078974751        7.50631028872899
H            9.31363452200849       -0.30791436924654        9.85951275904073
H            8.18994257737347       -1.58117776252640        9.43827613338128
H            7.59295419991870        1.42313532882931        9.31684061246097
H            6.94382054912729        0.30615071719031       10.49523977665213
H            5.28592560350102        0.75837074665744        8.63943355928747
H            5.73049440806167       -0.93248592324517        8.70197995868630
H            6.87562592060468        1.13025123880706        6.73755543223520
H            5.79045524516420       -0.19913614272903        6.35577965942852
H            6.84827886314736       -0.01055293962561        4.53021094911997
H            5.67540031406318       -0.21000275337688        2.43113830275647
