67
 energy: -12.164656848668 gnorm: 0.000916561448 xtb: 6.5.0 (97a52f5)
C            0.57583469101169       -0.01968706636706       -0.11441830086559
C            2.09605938508956       -0.04471257870980       -0.14508061522525
C            2.72072399589017        0.38638857134097        1.18180505401062
C            4.24975371160438        0.37276554630285        1.15904290150112
C            4.85415086611428        0.80584112009669        2.46337408487493
C            5.27976629512463       -0.15356277347789        3.35577666613661
C            5.82078438018887        0.15686820591855        4.59826887201154
C            6.24360233482785       -0.94582572300033        5.44911671003848
O            6.16616178312358       -2.11699821851006        5.17358807166007
C            5.93321961285571        1.51558812075845        4.98291168531954
C            6.48338572023740        1.91674118660142        6.23128319133431
C            6.58089135448552        3.22283894277679        6.57919116556374
C            6.12983017829239        4.25898651777576        5.71969389687140
C            6.23336377537088        5.63058113207427        6.06884752375332
C            6.79951627628128        6.06187428046637        7.39118632162228
C            5.78487556031812        5.95046194139325        8.53021434715675
C            6.35393064061164        6.36367393661108        9.88737412791468
C            5.34169108906636        6.22369138011245       11.01338481956423
C            5.73829156219059        6.58431520247243        5.21530400975179
C            5.12513488103513        6.26993262667896        3.98987298981899
N            4.53180742617614        7.28506321361560        3.21788949855776
C            5.04983087689474        8.67320987650941        3.22363724844041
C            4.14827679987710        9.60739380140176        4.03710727710254
C            2.70443164423651        9.54847229899851        3.51357584675297
C            2.18896147073662        8.09986419868844        3.49862398297723
C            3.13527281804539        7.18235934121505        2.71389691981036
C            5.07798271047972        4.90256551683919        3.59209843723738
C            4.60676812086275        4.51569268688981        2.31400597999469
C            4.53309053535841        3.21244921321407        1.94750351557130
C            4.94548874809509        2.17050241232729        2.82295763720670
C            5.47960314911640        2.52337599411352        4.09100033646169
C            5.56077885413430        3.89958262024418        4.46991150497946
H            0.14102359774837       -0.33093070746745       -1.06681260666189
H            0.20227301147975        0.98217039721581        0.10527735891924
H            0.18597764778353       -0.68530962086152        0.65782104770593
H            2.46866978810724        0.60443074170045       -0.94848809147136
H            2.45297429435341       -1.05038707859995       -0.40384312305343
H            2.36201963454751       -0.26424629664935        1.98863104117845
H            2.36422134812741        1.38828048926686        1.44909751540589
H            4.62514185498804        1.00465432696863        0.34701202796969
H            4.60319781014535       -0.63493687348633        0.91158000044738
H            5.19269611019833       -1.19164675173203        3.08817467215301
H            6.66444769820880       -0.71985963247359        6.41663469933089
H            6.83586322867165        1.16811722312045        6.91690848717460
H            7.00575028058150        3.48111681695096        7.53286269220238
H            7.15469789609583        7.09621591360462        7.31514495906309
H            7.69669024166498        5.47672316950006        7.62023544201002
H            5.40596488815591        4.92338728610843        8.58776960788633
H            4.90505646519020        6.56160431835743        8.29593541587834
H            6.71605268653773        7.39851106217303        9.82959107648772
H            7.24648640499909        5.76213825597357       10.10414476369582
H            4.45428324482886        6.83112882569781       10.82362166561031
H            5.75371898685898        6.53246963471807       11.97676713318194
H            5.00752416874669        5.18903517904501       11.11587593389098
H            5.77420732162839        7.61333480803385        5.52159837914623
H            5.10549474251302        9.01237546341714        2.18443752218177
H            6.08026480746416        8.67193028601948        3.59448298019147
H            4.53326795345190       10.63653321248230        4.01751639122866
H            4.16419658298368        9.30408585813578        5.09052457703796
H            2.66851736206266        9.95819790559045        2.49653704402308
H            2.04502564079660       10.19192249635963        4.11297924504167
H            1.17166140827273        8.05262562081849        3.08570644369203
H            2.10642147459745        7.73396320087194        4.52935240887622
H            3.13211541580282        7.44071435120199        1.65076064381954
H            2.80105703692611        6.14289324744181        2.78968316632612
H            4.33866616194595        5.28149652773217        1.60845645099285
H            4.16234155582476        2.96151681737276        0.96981732052147
