84
 energy: -15.989701220402 gnorm: 0.000587841336 xtb: 6.5.0 (97a52f5)
C            2.32073070407775        1.54480654047386       -0.82055036427313
C            2.84384913492025        0.24569649038706       -0.22801970242526
C            3.54047936387754       -0.63868384078740       -1.26277361189464
C            4.05579228028062       -1.95413428625030       -0.67776146829208
C            4.73426141196570       -2.82040105242837       -1.69883829052957
C            6.10962036861026       -2.82132056383913       -1.82623664829798
C            6.76833860738695       -3.60358316162819       -2.77585043576561
C            5.98878695147542       -4.41170245444797       -3.64327915641660
C            4.57407528035849       -4.39345504593644       -3.54360157712762
C            3.98636666265915       -3.59851899208850       -2.55957959907431
C            3.73569087066943       -5.18995186426340       -4.43809735515287
C            2.33638342256334       -5.08371781227784       -4.45176177171332
C            1.56551343002385       -5.88243134636622       -5.26345222047288
C            2.16226961925398       -6.82193475107514       -6.09012739043582
C            3.52824144747574       -6.93857564992358       -6.10668846373836
C            4.31333786058953       -6.12142734943992       -5.30484234383760
B            5.83943926195295       -6.22206309844447       -5.33543406710000
C            6.48459908248658       -7.58303837694656       -5.75316737335377
C            6.85746418998230       -8.45138972891274       -4.73138769440071
C            6.64925749245978       -8.06911098080572       -3.30865770113244
C            7.39168150099767       -9.68292787795622       -5.06895763471208
C            7.57380289094684      -10.05286242685423       -6.39459319902759
C            8.14465646355353      -11.38372456454978       -6.74245005735528
C            7.17684931108292       -9.17422402243158       -7.39281155529508
C            6.62972704186121       -7.94021947968081       -7.09227637886194
C            6.19376818668407       -7.03066850345081       -8.18566952848402
N            6.60585437119889       -5.22370442505952       -4.57861451690225
B            8.04837420038228       -5.13494436685816       -4.82827117835882
C            8.65593712586268       -5.51326602325055       -6.21699401534591
C            9.55355865184347       -6.57107251218082       -6.34727307211089
C            9.94663410213352       -7.39652625199370       -5.17395036332111
C           10.09694892964299       -6.82884334088674       -7.59259734224612
C            9.77076564984728       -6.05649429433781       -8.69866275013189
C           10.38103002490236       -6.34204165342918      -10.02689497482396
C            8.89688868706412       -4.99028346482855       -8.53370082555961
C            8.32341022765945       -4.71190234064518       -7.30518989885728
C            7.40735663248394       -3.55242294655741       -7.13408724962112
C            8.88658730082987       -4.28033288699375       -3.87811327885761
C           10.26507234532864       -4.20783394864972       -4.02528423841905
C           11.01683404997616       -3.45292004736635       -3.16259124742475
C           10.39047704964196       -2.75801396908626       -2.13957205522689
C            9.02363652673971       -2.81349649231387       -1.99770965583300
C            8.22715961872239       -3.57032304778361       -2.87114236933752
H            1.82894516746757        2.16938734204225       -0.07116416589422
H            1.59609269420499        1.35294551699141       -1.61422287461021
H            3.12928704465446        2.13279714799334       -1.25883074811986
H            2.02155280944994       -0.31701545598132        0.23411433060513
H            3.53971081893346        0.45787747395304        0.59498622211354
H            4.37285410504872       -0.08972712023097       -1.71970209802368
H            2.85274115178736       -0.85061220532258       -2.09065906637648
H            3.22657699103567       -2.51041736742955       -0.22543757294374
H            4.74778487545595       -1.74863654052421        0.14704067954468
H            6.67028139271502       -2.18786650195216       -1.16592097906669
H            2.91949368346229       -3.58656676161070       -2.44191010491035
H            1.84653659849007       -4.35787227585571       -3.82873479530087
H            0.49217401825906       -5.78196139065984       -5.25505805369730
H            1.55549431656920       -7.45427079179666       -6.71786400236533
H            4.00368112913074       -7.67082662479512       -6.73431363459547
H            6.97552701857616       -7.04402292288385       -3.13114513322999
H            7.21049470857112       -8.71748465671395       -2.63475019990461
H            5.59402604399627       -8.13474430670996       -3.04099357585050
H            7.67541853114468      -10.36643350398463       -4.28835725194785
H            8.78645117901682      -11.75900633594560       -5.94394487357587
H            8.74631799735618      -11.32714116232360       -7.65091384308155
H            7.35159181113616      -12.11428975100153       -6.90861713791363
H            7.29540960702889       -9.45868885437291       -8.42347238707648
H            7.00223918913827       -6.86491899610707       -8.89832225441841
H            5.89042792016892       -6.05986077156505       -7.79227918239652
H            5.34884955490904       -7.45174635538582       -8.73210973496256
H            9.34222025379025       -7.15066032625509       -4.30024325006719
H           10.99357457734260       -7.23392769723730       -4.91457978936394
H            9.81474721926691       -8.45849815848692       -5.38380225025202
H           10.78982887330832       -7.64407569647060       -7.70437966252484
H           10.54699179902062       -7.41210458819435      -10.16074744175299
H           11.34252036165286       -5.83668711348493      -10.12869561948561
H            9.73500570201569       -6.00418777495362      -10.83858717637621
H            8.65778150440233       -4.36997872227160       -9.37933181116035
H            6.92578322617230       -3.28470128139333       -8.07550044294557
H            7.95128449791516       -2.67971759117748       -6.77066287888920
H            6.62167931883623       -3.78080979723590       -6.41348541896502
H           10.73602874346086       -4.74525070514961       -4.82901490644288
H           12.08736566762149       -3.40019554846038       -3.27782987495360
H           10.97907384065344       -2.16747932274242       -1.45616114551003
H            8.56868572436099       -2.26374629230796       -1.19449127195291
