70
 energy: -13.344335196074 gnorm: 0.000377232115 xtb: 6.5.0 (97a52f5)
C            4.61126542870296        3.12767866174892        2.54108140735357
C            4.89552447151757        1.88355496235442        3.36775483462901
C            3.62260234567452        1.15072875780316        3.79390566928916
C            3.90462499605438       -0.12590414639517        4.59415813746016
C            4.59288749288793       -1.18765897016711        3.78318033597353
C            5.93872066099636       -1.33716345439238        3.88472519655994
C            6.68746612336950       -2.32924690257754        3.19225193350349
C            8.06035917298051       -2.47250442763973        3.43293312548670
C            8.76514929142787       -3.48279975395100        2.84187962482516
C            8.10939194742407       -4.38213642195089        2.00942279924998
C            6.77866931429339       -4.22372028543494        1.77259441759746
N            6.07871031897341       -3.19186856440496        2.32247609525948
B            4.63110196377393       -2.90664514457433        1.96806868811988
C            3.92572871189121       -3.52806609211804        0.76626164849751
C            4.67017856987486       -4.15465159233759       -0.29988399984422
C            4.31463532416361       -5.35579216993757       -0.86392255830732
C            5.13707135383078       -6.04495384322685       -1.74689927999969
C            6.39057743151168       -5.60155047267063       -2.08870484420740
C            6.89469572261284       -4.38920342455253       -1.63484349333613
B            5.95587645971827       -3.53445439241558       -0.83310483736422
N            6.33896373494372       -2.08927279611263       -0.58857229205789
C            5.43724033465555       -1.15846429272528       -0.16896841785832
C            5.82667460187853        0.10661125306290        0.14561154402281
C            7.16794019090983        0.45509385736433        0.03290347004518
C            8.07034199382844       -0.46429725795251       -0.42340785233799
C            7.65347003238432       -1.75726695491025       -0.76658436582139
C            8.57115960507455       -2.68383667355375       -1.33732153939383
C            8.22469977345220       -3.91257946871393       -1.80177996702275
C            9.27634202724248       -4.79588804806586       -2.40954232969768
C            9.80533517201943       -5.84378467437665       -1.42990729191645
C           10.85759433016086       -6.76589195507621       -2.04580296861778
C           11.36655298605755       -7.81217109058235       -1.06679977495652
C            2.55667981303155       -3.41930641444734        0.75682016138457
C            1.85387302386592       -2.67730992286145        1.69723500214116
C            2.47674980181233       -1.96222700880268        2.68910535854181
C            3.85439958045628       -1.98481198912407        2.86505012790039
H            5.52902090171209        3.63027571156809        2.22755799011516
H            4.01680717720455        3.84913200033228        3.10471771671333
H            4.04671884511348        2.88286201485540        1.63956825031656
H            5.47875182098402        2.14701620585924        4.26019588293566
H            5.53917365147915        1.19471094453601        2.80573044827047
H            3.03410892899412        0.89925583012336        2.90336048551945
H            2.98989337202189        1.83302670964451        4.37607247816626
H            2.97742163632906       -0.53593847918266        5.01179496784287
H            4.52125601158088        0.11949233454975        5.46665839175824
H            6.47484954921788       -0.69526727798458        4.56148738838708
H            8.55129593337325       -1.78446869234051        4.09989281328020
H            9.82116164907200       -3.59182415978097        3.02902145440231
H            8.65210885519417       -5.19185155315619        1.54992906147117
H            6.25853828826661       -4.90815018318533        1.13002192618321
H            3.38554361902536       -5.80586430417028       -0.55691875053403
H            4.79650510860950       -6.99070649683731       -2.13731084650666
H            7.00989461786223       -6.21780831045208       -2.71718312938013
H            4.40700256350024       -1.44778977303403       -0.08219143950159
H            5.10238281541960        0.83083875677424        0.47949560829511
H            7.48940262648949        1.45112413523353        0.29103413922059
H            9.10718007970989       -0.19838522808895       -0.53942268716881
H            9.59418966752220       -2.36787428232485       -1.44175820693044
H           10.10644840282925       -4.17956640882437       -2.77403974178366
H            8.87591772887085       -5.28350955599957       -3.30509788600458
H            8.97036792373121       -6.44198755731610       -1.04562846711971
H           10.22288191547581       -5.34230346085464       -0.54841288718977
H           11.69314553982518       -6.16132923754836       -2.42310667928934
H           10.43613487249738       -7.25346092081843       -2.93507051872594
H           11.81788843419841       -7.34528252610689       -0.18923758526322
H           12.11972088229173       -8.46341729906452       -1.51625548005479
H           10.55345580367908       -8.44740964323804       -0.71016695773434
H            2.01580337971009       -3.88643033070626       -0.04890088349335
H            0.77961048328093       -2.62743204370838        1.61710162270046
H            1.87996281129647       -1.35519580528346        3.34752775603234
