102
 energy: -20.517999516516 gnorm: 0.000823950249 xtb: 6.5.0 (97a52f5)
C            0.84091267694331        0.77538740292358        0.92782242896907
C            2.32960439471458        0.46512778814348        0.93027227158843
C            2.91702078386776        0.39391587298348        2.34002770425972
C            4.41192686598520        0.07316297870294        2.35329292835375
C            4.97885589885459        0.02130559480161        3.74040467196080
C            4.93171931336583       -1.15230294621832        4.47928343757889
C            5.41241545751058       -1.19138749777677        5.76861774705091
C            5.94528060492595       -0.05122221948498        6.35420139527551
N            6.35963561114753       -0.06397112170130        7.73399785738006
C            5.68773028851069        0.44012129265189        8.85468892089676
C            6.47209975252778        0.23045139799130        9.99864567369638
C            7.62812139438129       -0.47306442073582        9.57044097144056
C            7.56312530165690       -0.63683230544771        8.19272270261028
C            8.69339929058224       -1.38395672655571        7.77103556554888
C            9.41361438846612       -1.70717752016444        8.93018155907088
N            8.78386504364778       -1.13051123861663       10.04049108110480
C            9.18308104456469       -1.16550924088914       11.42444995333256
C            8.54002362976404       -2.00355142445070       12.32392629471340
C            8.97234990690084       -2.08741985840872       13.62812441528669
C           10.05142076759277       -1.33617438843066       14.07533569511853
C           10.50097092302587       -1.47651900130250       15.50474513647493
C           11.39306845331173       -0.34712944769314       16.02859606077795
C           11.69439858907449       -0.46846793772078       17.52284305480865
C           12.57571796652329        0.65861348105896       18.03815877423384
C           10.69115458540689       -0.49963393014686       13.16978887009359
C           10.25965066922767       -0.40824391416927       11.86557113041565
C           10.59216615361796       -2.53716139806371        8.91494864220019
C           11.24827867366903       -2.93233050414230       10.08618555942518
C           12.36687970763472       -3.72778005158166       10.05656424316262
F           12.97627782310739       -4.09484211384522       11.21458153579616
C           12.86584277741178       -4.15862275746619        8.82844214696813
C           12.24370033268591       -3.80303485236829        7.66384861800364
C           11.09879585680941       -2.99748369156611        7.67997295358186
N           10.46233892003995       -2.65295865309343        6.50772863883587
B            9.26641952363899       -1.86142413919982        6.45033594573018
C            8.80385550690817       -1.30643228251152        5.06416792040710
C            8.25908576885657       -2.15990724058376        4.12609275450242
C            7.93664284560875       -1.68726536624772        2.87195495202857
C            8.16325154991199       -0.36163779123171        2.55494462954585
C            8.71179554067087        0.49069556873236        3.49389298019522
C            9.03348948881777        0.01748504171661        4.74784092786896
B            5.93563782744821        0.78279515055910       11.30600779414671
C            6.80649837690885        0.95397205782383       12.59316823082433
C            6.43626607009299        0.31207072653231       13.75795480363774
C            7.12864401040001        0.55222066143601       14.92533538955220
C            8.18870221215448        1.43822776105677       14.92840466211065
C            8.56062530011212        2.07786208761570       13.76144636304100
C            7.86763789047248        1.83711369487762       12.59445475246362
N            4.64867090648540        1.41793719436418       11.26671274634201
C            3.88845237922036        1.54267904411342       10.12495970889836
C            2.62464374368409        2.14361262642865       10.16660400095705
C            1.86323276665435        2.25147894655524        9.03590494807676
C            2.33229684683739        1.76130239493282        7.81830610850814
F            1.57344939426109        1.86295408330790        6.69505146367516
C            3.57196935582649        1.17410400740734        7.76305567006938
C            4.38519612737483        1.05673677393947        8.89606526011310
C            5.99933780886019        1.12329841364786        5.61491646652729
C            5.51481846388365        1.15875917613457        4.32708188606595
H            0.43410322036828        0.82632030450508       -0.08433432361106
H            0.63660407986598        1.73139556160924        1.41252816425838
H            0.27879624099808        0.01332201874745        1.46998902502994
H            2.87398931055439        1.22070109542780        0.34905226433966
H            2.51874852242110       -0.48333624497128        0.41099390757806
H            2.37678554979230       -0.35718904726515        2.92834216250915
H            2.74176062575096        1.34191893127860        2.86246566745359
H            4.95825411534886        0.81836807647081        1.76437206146025
H            4.59390702852953       -0.88280433193918        1.84963895287970
H            4.50996936812039       -2.03656355023050        4.03320254159679
H            5.36865997028004       -2.09890015804771        6.34468443041733
H            7.70687919644419       -2.59180942201837       11.98143379975241
H            8.47098898174825       -2.74401408710328       14.31844748475315
H           11.01831254162368       -2.43570001696863       15.61997718045457
H            9.61176042854434       -1.55019853838465       16.14146877335273
H           10.91742719949601        0.61970006423921       15.82898484107469
H           12.33580542523989       -0.32699681249471       15.46977394182642
H           12.16782530976750       -1.43916986386824       17.71936784433472
H           10.74998984504790       -0.49452567834890       18.08196755613757
H           13.53470884195658        0.67870922008960       17.51782038328935
H           12.78309872047758        0.56177000374496       19.10581571006061
H           12.10444159939295        1.63029365839900       17.88179664585279
H           11.53388592743143        0.08744570259338       13.48880669122457
H           10.75936704770915        0.23872104807814       11.16605249664705
H           10.87433588706293       -2.62829192635905       11.04262241342588
H           13.74409772816839       -4.77945811419974        8.81834480631251
H           12.62673144177125       -4.14428181677021        6.71819563184509
H           10.87704812166214       -2.96410165234084        5.63955577192493
H            8.09616131745807       -3.19135037927127        4.38623818283894
H            7.50765187499406       -2.35105533597289        2.13960890418397
H            7.90857659253196        0.00882564463938        1.57556855820498
H            8.88523197006746        1.52520504126981        3.24729150123357
H            9.46651437342348        0.66648182048303        5.48908673189822
H            5.60021056394020       -0.36543543188347       13.74182371424050
H            6.84149172972375        0.05150727131744       15.83525630561890
H            8.72300597323467        1.63325315075908       15.84345954819932
H            9.39076643750644        2.76490903444736       13.76351185416043
H            8.13688978722793        2.33577034816714       11.67947553659820
H            4.27967792884868        1.81483283543503       12.12052271277469
H            2.25628786803342        2.51666169784480       11.10610918754912
H            0.89073136528798        2.70996871533328        9.06657461892590
H            3.90223273913713        0.79035122474821        6.81936477665789
H            6.40745613573715        2.00711343749466        6.07300909577125
H            5.54545751468855        2.07552126293986        3.76374293969864
