108
 energy: -21.452566419425 gnorm: 0.000922262294 xtb: 6.5.0 (97a52f5)
C            1.82080561465492        0.06851753115347       -0.68412863997145
C            2.44706866067462        1.24348265869641        0.05131772132522
C            3.19002999985947        2.19912135838512       -0.88333578614881
C            3.82933875325844        3.37955294271406       -0.15281449371311
C            4.52272942247746        4.34325615510328       -1.07123660831263
C            5.90216409262765        4.31892645475412       -1.22297241373933
C            6.53801321169196        5.23725700169995       -2.02846226705008
C            5.80647129321095        6.20545776150394       -2.70429984199995
N            6.47064426078033        7.27678886926685       -3.40559129323667
C            6.91448508336705        8.50261734923659       -2.89181045164155
C            7.36655227580685        9.30982447053353       -3.94589840562342
C            7.16410679713170        8.57067893401695       -5.13885347843534
C            6.63595316043239        7.33025811493830       -4.80467760278674
C            6.37646777200641        6.61269152740914       -5.99927494135883
C            6.72496538970981        7.45980373619610       -7.06053352660940
N            7.21875836497947        8.66571796588937       -6.54514827720039
C            7.58326048345366        9.85678332660876       -7.27259732811697
C            8.85904864580844       10.00354950305543       -7.80183617337435
C            9.14730517456868       11.05197428997016       -8.64707654159180
C            8.17229202510500       11.98050485791314       -8.98527371574537
C            8.46049512359764       13.08847482112947       -9.95679521969884
C            8.54784085293481       14.46706300087437       -9.30128106144505
C            8.78375148062679       15.59655863402145      -10.30518523672210
C            8.86469252835402       16.96430564986919       -9.64435668780548
C            6.91099755631390       11.85411276612366       -8.42185704452992
C            6.61869085752256       10.80857638704728       -7.57562775103171
C            6.55712944904611        7.08693210028347       -8.44314249973690
C            6.87746781639598        7.94397055079730       -9.50399277549309
C            6.71307852118417        7.55891189339291      -10.80639833305368
C            6.21969467588860        6.29629857580128      -11.10845872917368
C            6.04444564085491        5.87451519187839      -12.56468782559996
F            5.16788675046606        6.71250315938217      -13.14911074799557
F            7.24080524045326        5.94823125500848      -13.17757183658109
F            5.57825439264692        4.61123532715653      -12.60225624910857
C            5.89355427577630        5.43801719667259      -10.09546156942701
C            6.04958108358800        5.80726830005282       -8.75594839359249
N            5.72400132039099        4.92815215753681       -7.74807569466120
B            5.85878600765742        5.23434002138225       -6.35438750630104
C            5.77635349935860        4.06371756329560       -5.32384164264218
C            6.94421135825371        3.52114195696065       -4.82717960953883
C            6.89352748252525        2.41198840327984       -4.01120897267922
C            5.67491957547465        1.84171874144814       -3.69922697871540
C            4.50702672265467        2.38648209914484       -4.19745288932400
C            4.55754864808647        3.49902586565820       -5.00871098425155
B            7.92036083529444       10.67165897300419       -3.58164005286447
C            8.72775087110227       11.56195775428919       -4.57900376243961
C           10.01465316831865       11.19780725768747       -4.91979448580608
C           10.77994662532335       12.03409140421740       -5.70291763079069
C           10.25915637428825       13.23664464463845       -6.13939028301157
C            8.97013862886671       13.59880053670740       -5.79826814667585
C            8.20386795383356       12.76048263454255       -5.01836662568758
N            7.91208412684257       11.03133749988126       -2.19452950260435
C            7.42913517908466       10.21405355964877       -1.19803555812010
C            7.44520699496621       10.63471828994948        0.13537864973385
C            6.96707685974639        9.83412971377410        1.13530096782689
C            6.99422951685681       10.30924944293986        2.58547247602440
F            7.72513188991312        9.43845938902735        3.30648826357862
F            7.54862579651527       11.53604126480109        2.63487103329569
F            5.72959072280630       10.35035174815437        3.04491831305296
C            6.45336062828742        8.58160239427476        0.82565395409531
C            6.42950275350250        8.14498079404550       -0.47054398514690
C            6.91771200354103        8.93773140139014       -1.51725771829337
C            4.42281599695497        6.20352573321797       -2.58857840402084
C            3.79163291063583        5.28333329809655       -1.78261530567948
H            1.29188568337836       -0.60380737128168       -0.00585111598866
H            2.57824308061967       -0.51938093787830       -1.20478827660234
H            1.10509869739269        0.40930371358387       -1.43383995824758
H            3.13876931797860        0.88033406714702        0.82243345034248
H            1.67552079626019        1.79981362917661        0.59909348990573
H            2.50216106083533        2.57263623996363       -1.65074140128563
H            3.96270604410039        1.64917024824014       -1.43130842151202
H            4.54062284936728        3.01144617743989        0.59480102988062
H            3.06531735636083        3.91843128775587        0.41863484158845
H            6.47673353336607        3.58067892327552       -0.69064866489063
H            7.60985323194020        5.23766744321055       -2.12093774069061
H            9.60699893931158        9.26704937907955       -7.56607667006927
H           10.13368464434182       11.14853626651899       -9.06679969389281
H            7.68178706949326       13.09459064903615      -10.72810835308250
H            9.39262949215049       12.87423834656010      -10.49145429508265
H            9.34975868857123       14.46564608140519       -8.55525554780299
H            7.62943746641916       14.66398391334484       -8.73613084094325
H            7.98230031516900       15.58749892385411      -11.05487244726645
H            9.70382914918539       15.39457930294030      -10.86841591579522
H            7.94543793771129       17.19554969220927       -9.10344362495906
H            9.02751825812188       17.76165936361418      -10.37237460646904
H            9.68294623976449       17.00617066369472       -8.92346495595159
H            6.15058392597575       12.57393718428620       -8.67113991492711
H            5.63044426634715       10.69282673164189       -7.16651540557124
H            7.25828123467367        8.92336966909991       -9.29168134031704
H            6.96384166811221        8.22499652851191      -11.61428678606761
H            5.51252958725477        4.46395116561283      -10.33988841336125
H            5.41188686803256        4.00382980882405       -8.01376691266426
H            7.88604749645127        3.96797138977250       -5.09482830144442
H            7.80427191375719        1.98636640264680       -3.62328347631788
H            5.63795696106454        0.96563335693137       -3.07299594368993
H            3.55704450489795        1.93495854056862       -3.96444419853357
H            3.65812739359579        3.92816769667663       -5.41525864589283
H           10.41090883770112       10.26537389646211       -4.55660301840610
H           11.78568609623198       11.75316687314423       -5.96878438656767
H           10.86372088439176       13.89603764473250       -6.73994205536232
H            8.56698939584523       14.54121726796407       -6.12993072101922
H            7.20304407716014       13.03398930218268       -4.73204676702669
H            8.30542390683460       11.92176979898236       -1.92207037980215
H            7.83871368699191       11.60232233655081        0.38553591385926
H            6.07749375396829        7.96343534407903        1.62311622019473
H            6.02579650913857        7.17644957328597       -0.68974202907976
H            3.85749103870617        6.95423428422080       -3.11232813469605
H            2.72004496346696        5.30009503878282       -1.68202747540339
