31
 energy: -6.615997396794 gnorm: 0.000387687744 xtb: 6.5.0 (97a52f5)
C            1.05977404256271        0.13305005914479        0.27243535851913
C            0.26896370884809        1.21468775141363        0.17272205737119
C           -1.18061777201216        1.21374313049045        0.15349967194639
C           -1.92016980160213        0.04501535097003        0.25987850652783
C           -3.28086581601997        0.13985353485954        0.23272617070438
N           -3.91524578088529        1.28806796059037        0.11014605510835
C           -3.11692132846055        2.32965281593255        0.01671838022814
N           -1.80282525608023        2.38820443829878        0.02898968711460
C            2.51192561319317        0.15873156120020        0.29084869753517
C            3.22303699888116       -1.04356074514767        0.27915729875961
C            4.59683568840212       -1.05326482788615        0.29529048432952
C            5.31930866726137        0.13418223645353        0.32620828632448
C            6.78208222935889        0.08328996554583        0.34238797618758
C            7.65247909356415        1.16467862278717        0.41549465700339
C            8.93963106431628        0.65055241830873        0.40281041656241
C            8.82134744274121       -0.71839448525994        0.32390074384569
O            7.51284951163451       -1.08315680838897        0.28662469020891
C            4.61687925519913        1.33682084128449        0.34112137919237
C            3.24266261908645        1.34934278236147        0.32429059145539
H            0.60237330117427       -0.83663376183724        0.33637501860532
H            0.72412625330705        2.18312401788103        0.08903184604271
H           -1.43989883723945       -0.91078795224514        0.36364224513460
H           -3.88727561875185       -0.75096413903090        0.31302894861116
H           -3.61701106229719        3.28361928045623       -0.08611363919586
H            2.67989363860328       -1.97258639131522        0.25435076449259
H            5.13741703993178       -1.98419760201209        0.28415999366437
H            7.38265695090685        2.20532952216775        0.47220158970535
H            9.85684534609615        1.21519080783988        0.44267499880761
H            9.64534552588390       -1.42188966028525        0.29416385028017
H            5.15966800708054        2.26504363788689        0.36589851254136
H            2.72686927531701        2.29215563753425        0.34671476238990
