78
 energy: -15.858129730521 gnorm: 0.000975842111 xtb: 6.5.0 (97a52f5)
C            1.02664415157991        0.22056346047066        1.17110478364381
C            2.35814363182907        0.95586117883860        1.18369406173133
C            2.90712314008730        1.21201620027835       -0.22065592894358
C            4.24656469218075        1.95050085824165       -0.21868261427960
C            4.78067165446863        2.18630528640641       -1.60057894163080
C            5.58004933636012        1.23601575331512       -2.22011638726475
C            6.03818939496771        1.43074498591244       -3.50341435323594
C            5.70547625630205        2.58310851870233       -4.20205543873410
N            6.17253184227307        2.77908240425746       -5.54819465286570
C            7.02694505188346        3.77038417617877       -6.05723068510736
C            7.76177717313322        4.80835905464563       -5.44159503083935
C            7.79143636856038        5.04879551468947       -4.06335467451648
C            8.54441620186484        6.07149098112414       -3.54798661462858
F            8.57209969279252        6.29627046576193       -2.20914379622568
C            9.28738080340495        6.87597285334133       -4.41546397154931
C            9.27620370758224        6.65068701309894       -5.76379080762311
C            8.51741537257001        5.60809555142874       -6.31681325922909
N            8.54278717456886        5.39810190531113       -7.67870002158187
N            7.89342494488845        4.44663763023752       -8.22706654770290
C            7.14662309990990        3.62992374153752       -7.43860895719049
C            6.34907130864902        2.50293116922121       -7.80540678291463
C            5.76699654442700        1.99738795619046       -6.65079976198196
C            4.94367555189016        0.89050040776289       -7.01972348321354
N            4.17003681961978        0.09913823611056       -6.23170783067793
N            3.50967850233521       -0.84468773016365       -6.77972428540067
C            3.57968283617349       -1.09462626478548       -8.13314579641682
C            2.85838588003795       -2.16916223857002       -8.67468968885137
C            2.92079554790415       -2.45955087165892      -10.00901149930614
C            3.70992805153048       -1.69591803801738      -10.87247830809651
F            3.77112121596132       -1.99677678414903      -12.19519966112180
C            4.42061820428006       -0.63770063209216      -10.36883544134456
C            4.35837394453655       -0.31660123970032       -9.00803947238102
C            5.06096253349506        0.74944067733519       -8.40130407301570
N            5.91296098128008        1.74300911630649       -8.91212853814364
C            6.23159915880005        2.05136547917703      -10.27956134123877
C            7.54972821718673        2.03855191837388      -10.71413446332098
C            7.85700374680886        2.34479338341758      -12.02048961036867
C            6.85715456668896        2.66785421020782      -12.92726217580088
C            7.19673516299902        3.02852940868108      -14.34325535413890
C            7.40931892108108        4.53042532947678      -14.53918621818773
C            7.77698772142826        4.90260235213349      -15.97642698171880
C            7.98576207432088        6.39747512502861      -16.16418703983659
C            5.54196873220984        2.69945351911793      -12.48589745798431
C            5.23184380606511        2.39704610794904      -11.17925956115579
C            4.89238881575790        3.52823003726940       -3.59059528822988
C            4.43678839441460        3.33043192004441       -2.30673055370930
H            0.64785021707641        0.04193274871430        2.17944044956027
H            1.11629028451405       -0.74831081365536        0.67740798884807
H            0.26779592071222        0.78868031693096        0.63089977631390
H            3.09717307840803        0.38733428212720        1.76289721207054
H            2.25583239786944        1.91223753704944        1.71258145176587
H            2.17595146253100        1.78290482119795       -0.80495956186570
H            3.01593566158326        0.26010499466162       -0.75354607665935
H            4.98255443547162        1.38500061845755        0.36358088729410
H            4.14288783715603        2.90980326014761        0.30043528774211
H            5.83566407443596        0.33640454706928       -1.68695451425809
H            6.65583049317735        0.69274733521269       -3.98440130206615
H            7.23011217943297        4.42681966554622       -3.39361691119261
H            9.87381300660008        7.67425521981449       -3.99621339030361
H            9.85630545777416        7.26996100372290       -6.42530396966667
H            2.25309950509152       -2.76515901632674       -8.01435526087523
H            2.36613820353528       -3.28496559651899      -10.41879677288543
H            5.03672280585245       -0.06362419685754      -11.03306873046029
H            8.32469806153629        1.78912784239288      -10.01077067323924
H            8.88221707037960        2.33932982347132      -12.34870241240432
H            6.40203071315346        2.67430115202960      -15.00945664060389
H            8.09533207608752        2.48227547822667      -14.65118892999763
H            8.19134513446008        4.88084381417612      -13.85530560924463
H            6.50457412336968        5.07087089468835      -14.23693263535918
H            6.99326000361711        4.54259230744507      -16.65573157449395
H            8.68158222880184        4.35536433505437      -16.27204173378259
H            7.08438392988759        6.95641883833591      -15.90819150478088
H            8.24710378707153        6.64852365102544      -17.19416060130081
H            8.78662319133431        6.76699624896880      -15.52182572138847
H            4.76172666260195        2.96705349325028      -13.17766052128828
H            4.21231356470218        2.42767883818920      -10.83659396487315
H            4.62101983367412        4.41324067403718       -4.13910579752131
H            3.80147166798366        4.06399579259012       -1.84079373618815
