84
 energy: -16.763838212708 gnorm: 0.000843154045 xtb: 6.5.0 (97a52f5)
C            1.05801894992251        1.88729773940853        2.42233982490781
C            2.34423838645041        1.56628200879374        1.67515140163120
C            2.82383521191074        0.13145961258445        1.90554194287625
C            4.10789766998199       -0.20369338250604        1.14362170621556
C            4.56788782411733       -1.61403218969791        1.36754080810779
C            4.03064755290357       -2.65584508594168        0.62549360399618
C            4.43065550210556       -3.95445868571242        0.84333970050813
C            5.37562471118850       -4.24630940596908        1.81690472024220
N            5.81255893951130       -5.60060953239490        2.02063606021773
C            5.73214665934955       -6.41070953671970        3.16535546975951
C            5.13590036655518       -6.22408578999256        4.43292800560689
C            4.44045036173532       -5.07421325563648        4.82844469641272
C            3.89489800876214       -4.99531547149242        6.07844864912252
C            4.02257706454330       -6.05990012191816        6.96699099714571
C            3.41682716619893       -5.95976855256586        8.36187538962567
F            3.61813780931762       -7.12167565632254        9.01031266747671
F            4.01800392937456       -4.95104803162126        9.01721975532850
F            2.09988284999260       -5.71638395275818        8.24040453156942
C            4.69028989984807       -7.19162535217616        6.58907235250066
C            5.26187047032481       -7.31040606643717        5.31558064015986
N            5.91318618269255       -8.47478027047497        4.97881286603712
N            6.43008243497068       -8.64596355452333        3.82744884413238
C            6.34460011676664       -7.63898387392139        2.92071054246502
C            6.80956248796150       -7.60277506704473        1.57134103084876
C            6.47559085897256       -6.36533839662630        1.03847196767992
C            6.92938814079521       -6.32904284889197       -0.31410465909287
N            6.83199736306325       -5.32364117921709       -1.22128769622911
N            7.29704703771744       -5.51244415674512       -2.39175172856713
C            7.86763542213607       -6.70892637501438       -2.76037944267418
C            8.31824517150492       -6.87323081697553       -4.07646745427496
C            8.88113976832407       -8.04681682320853       -4.49491283135823
C            9.35912432902793       -8.19420433655358       -5.93435712141367
F            8.71590943147653       -9.23383675739792       -6.49476750367660
F            9.08420504583041       -7.06001457425339       -6.60430975533670
F           10.68499291760799       -8.41877215366112       -5.92320449560325
C            9.01593713077924       -9.11170238882471       -3.60773856731324
C            8.58958109200185       -8.98796483403304       -2.31579480388407
C            8.01693432037669       -7.78861920866172       -1.87318084660398
C            7.52610904269078       -7.56240633410341       -0.56736498880386
N            7.47566763986868       -8.36256131290258        0.58583648125143
C            8.02518311262233       -9.67441367461582        0.79742008756597
C            7.19295334800128      -10.75394823753483        1.05803329142949
C            7.71964400681898      -12.01328212953415        1.23527442324848
C            9.08825050898628      -12.22821557045014        1.15448121502918
C            9.66276129021858      -13.59759998122698        1.36688424785481
C           10.04252303523476      -13.86399131480673        2.82495062741864
C           10.61967340445837      -15.26334441360702        3.05012450352808
C           10.99367682112873      -15.52296716746270        4.50207351636313
C            9.91941470172746      -11.14299286305989        0.91739357355332
C            9.39688328335573       -9.88189402581589        0.74247621368382
C            5.91595354556887       -3.20574473640033        2.56041542179821
C            5.51035748624006       -1.90851607594042        2.34263197343888
H            0.72909652561999        2.91348155059307        2.24708458788852
H            1.18558717189351        1.76202051021009        3.49857700838637
H            0.24772139336984        1.22529214069423        2.11342991005986
H            3.13671236300257        2.26506301490702        1.97225216067746
H            2.20505804854798        1.73267827275988        0.59921230386284
H            2.03399026060311       -0.57160409740659        1.61672232774521
H            2.97984114757885       -0.03904303739389        2.97711075192224
H            4.90452427209840        0.49017397985997        1.43367029757858
H            3.95835985804782       -0.03908277160986        0.07077000973650
H            3.29489580290997       -2.43829243483515       -0.12963005724509
H            4.02070341987313       -4.76048441171047        0.26035794124352
H            4.33510816174268       -4.25844124922825        4.13745583019316
H            3.36086912845386       -4.11530059531375        6.39458966691102
H            4.77477186108043       -8.00772544517941        7.28319992719352
H            8.21503846077924       -6.06210369216064       -4.77391357982098
H            9.45703462488131      -10.02872737027157       -3.95992581822566
H            8.68224243658987       -9.81104768584503       -1.63165610290341
H            6.13122601408654      -10.58937454897302        1.11508227021045
H            7.06771413468891      -12.84539632516370        1.43868948962223
H           10.54048654725738      -13.72599655713881        0.72378304335768
H            8.94310282206488      -14.35012504352762        1.02621027461036
H            9.16304381171254      -13.71966721349493        3.46319700080059
H           10.76382651423143      -13.10883025107757        3.15829545616002
H           11.49718784866181      -15.40097367181144        2.40533767546234
H            9.89424721408828      -16.01303614325900        2.70895353607109
H           11.74118604955327      -14.80859013900802        4.85012870374293
H           11.40417811036836      -16.52444478117707        4.64529418534729
H           10.12542107895625      -15.42693936837030        5.15567630135093
H           10.98400305980718      -11.29604615929731        0.87185457533765
H           10.04274865139533       -9.04078075562756        0.56036069333742
H            6.66180100435314       -3.43000949825075        3.30289891378329
H            5.92798239149905       -1.10827005878785        2.92909886000244
