71
 energy: -14.373874271451 gnorm: 0.000777136279 xtb: 6.5.0 (97a52f5)
C            0.99861007038683       -0.17152863121905        0.46693666765512
C            2.50681998230525       -0.03110302668612        0.33204052552891
C            3.18555842820362        0.35621831936687        1.64636961552887
C            4.70279191301749        0.49744382682051        1.51949524671580
C            5.36461067196145        0.86229870309542        2.81579409311994
C            5.55610215795201        2.19096998922915        3.16498094267347
C            6.13717638101591        2.52660631246158        4.36964875705831
C            6.53852170247480        1.54098860568812        5.26510651753294
C            7.13694881113883        1.88232119151063        6.49536194567300
C            7.65692258006767        2.17345460961434        7.56258998819068
C            8.25253687005939        2.50327398933474        8.79306809502316
C            8.25002421394677        3.82413394845147        9.26152716498824
C            8.82706668355089        4.14730894357594       10.45833833841049
C            9.44308140057273        3.17015590103871       11.26236665108951
N            9.99919215692999        3.54543404400627       12.44463736193095
C           10.56942437753555        2.59548949651316       13.17775883313332
C           11.15779586113149        2.95086262065538       14.41534513099621
C           11.75010331011737        2.02032502896178       15.20567727507462
C           11.79833680445905        0.66180316521727       14.81541320038584
C           12.40966417812422       -0.30692536212543       15.63180801113293
C           12.94116802048509       -1.14445517975036       16.34566333657541
C           13.55181826997285       -2.10895956175806       17.17369536929825
C           14.67277894315492       -1.78995700811021       17.93117031928843
C           15.26693834826300       -2.73387417249034       18.74149403613724
C           14.76722406817198       -4.02627267315331       18.82173375974996
C           15.43855693721409       -5.01456196060095       19.73870210401207
C           15.04952841145923       -6.48123235258760       19.53175168146368
C           15.83571953119914       -7.43934621017493       20.42827598917207
C           15.43320277181291       -8.89274749551660       20.23177819294157
C           13.64300943358386       -4.34224008718590       18.07043239130586
C           13.04662730604161       -3.40132917880383       17.25734692640358
C           11.23205888672311        0.31838442826612       13.61983061617686
N           10.63024381819732        1.24825826740990       12.81055500759471
C           10.06958957780303        0.81021708894228       11.59391864239913
O           10.10619194851412       -0.35953626560175       11.24103061773624
C            9.44586730672854        1.84064308589469       10.78987547603022
C            8.85473364672051        1.53108929103803        9.57202850262145
C            6.33449710674012        0.21016223344324        4.91680832439337
C            5.75380705269881       -0.12250901120518        3.71136678163594
H            0.52637871504148       -0.44849184978173       -0.47794507176394
H            0.54398024680378        0.76296071451518        0.79999173822071
H            0.73819627152111       -0.93598518264987        1.20091906165785
H            2.74958093839995        0.71594330389817       -0.43497306341410
H            2.94178221146279       -0.96913839157906       -0.03712223047825
H            2.95075085125913       -0.38806441757809        2.41660855584889
H            2.76033165858792        1.29530990731110        2.02007506037609
H            4.94454680871988        1.25135465145095        0.76180773248308
H            5.13299667194526       -0.43760689587272        1.14326207429278
H            5.24345103040863        2.96314488379204        2.48313728598556
H            6.28717054456193        3.56031049074972        4.63089812336936
H            7.78276958617010        4.58532022691230        8.66050591327618
H            8.81851068381178        5.16419622295254       10.80928099108885
H           11.12398564408119        3.98292871365223       14.71673323544590
H           12.19347310667229        2.30407086949725       16.14483418204777
H           15.07112448180430       -0.79103947921708       17.87727141086654
H           16.13152742382698       -2.47082851152639       19.32684524795312
H           15.23412273121828       -4.72598071592275       20.77603858061121
H           16.52384274518953       -4.91527440379390       19.62051885404484
H           15.19936847445934       -6.75654785117549       18.48101403376205
H           13.97709505486799       -6.61102296298262       19.71823320135201
H           15.69814690835252       -7.14826682064669       21.47787246586397
H           16.90980136217224       -7.31586867737955       20.23743701498043
H           14.37521533091572       -9.04220393411227       20.45357351540612
H           16.00221805367264       -9.56648337684731       20.87580965799438
H           15.59357230363583       -9.21012831896959       19.20005985746485
H           13.22926331455817       -5.33384561111760       18.11959938061450
H           12.17771787804690       -3.65898926170975       16.67573581412169
H           11.24957555498266       -0.70397451211502       13.28851446664202
H            8.86788663620649        0.51128893760378        9.23179533270547
H            6.63686968652914       -0.56082437214671        5.60489275121522
H            5.59493714979016       -1.15614828887744        3.45554238908099
