126
 energy: -24.190708685149 gnorm: 0.000845957686 xtb: 6.5.0 (97a52f5)
C            1.15667981338924       -1.03368931252683        0.19284746684961
C            2.63798519933203       -0.69150389229186        0.22517811040370
C            2.98354303890502        0.34457689057020        1.29535896683849
C            4.47253549964893        0.68911591793973        1.33893157501398
C            4.80261005965833        1.71260445476940        2.38449390282372
C            4.80924543852156        3.07918102240865        2.05746139520367
C            5.07852461912286        4.04544735371899        2.99503554640174
C            5.34116601872753        3.65281644373813        4.30613700918056
C            5.33464888399554        2.29057056633938        4.64815210185010
C            5.05936984505419        1.32100286029405        3.68274022746129
C            5.65665154196458        2.19901604168272        6.05225430616404
C            5.79666878156307        1.11115237819709        6.91530596356646
C            6.11508098956643        1.33416472120075        8.23969670309206
C            6.31241849486094        0.17851264674801        9.17513510999141
C            7.76278624880976       -0.30386611942905        9.21939239776295
C            7.97379177807048       -1.49332020996639       10.15659664057006
C            9.41788434072446       -1.96839595182164       10.18761720919144
C            6.30600905657195        2.64944709292915        8.69540359012316
C            6.17560032536299        3.73025559334143        7.85879704993595
C            5.85220742206846        3.50815957815661        6.52151052893298
N            5.65925307967203        4.40872186560812        5.45356155541026
C            5.82131251395024        5.83622747309223        5.51114454206185
C            4.82821157536351        6.68394540293055        5.03346377695968
C            4.99187962948751        8.05178334114972        5.08961577911037
C            6.14321451776570        8.58914751228631        5.61935395692227
S            6.29978149179954       10.38127510040346        5.66577584031956
O            6.38571197575087       10.88340518904856        4.23716519460836
O            5.22680929386393       10.93040831484641        6.58726853054562
C            7.89987421905438       10.57343274465077        6.45436375118966
C            9.03315705425053       10.68499144333978        5.68216868670511
C           10.26915462504238       10.80026459672810        6.28970649393649
C           10.35853377211721       10.80229494815422        7.66252165962737
S           11.96983409857059       10.93292404507352        8.44400837131874
O           12.21360756401289        9.66947200859867        9.24750436716641
O           13.00055687731261       11.37390246121882        7.42206353194679
C           11.61796891884577       12.30379578657444        9.54672309238995
C           11.39841858553519       12.06430982043088       10.88416535969890
C           11.12001840924417       13.11156853876890       11.73523317661010
C           11.06284033503746       14.41422830571326       11.25168273198007
N           10.78412588257000       15.50914953105470       12.14051447651569
C            9.81662461842273       16.51708615259574       11.94626021797159
C            8.91059470697187       16.73070675746289       10.90889260470792
C            8.06273700539802       17.80826998856708       10.98289294971129
C            8.07999293184963       18.68898578926142       12.07764681395701
C            7.16404393287677       19.87636776268155       12.10568573923507
C            7.80306939822937       21.13145850611286       11.51035695007860
C            6.88073803872738       22.35054559882693       11.54646098604266
C            7.52478305269779       23.59437615908296       10.95432308587116
C            8.97619126033706       18.48061813886367       13.10617066307783
C            9.84436598493023       17.38967685619522       13.04648109082525
C           10.86273288708290       16.91000375093835       13.94960016107545
C           11.32456183408528       17.38086826208075       15.17961133633515
C           12.34493363656738       16.70895517694659       15.82170719382219
C           12.82688047593839       17.17117080505707       17.16458353154572
C           12.06050652759864       16.52760115292851       18.32064647611823
C           12.54275788684877       16.99222969097366       19.69514165209932
C           11.77547283951262       16.34560447860782       20.83784266623442
C           12.89432932620320       15.55696108838373       15.23433800033162
C           12.45042110711508       15.07970422012324       14.02596531171755
C           11.42137990216746       15.75714872001823       13.37425552927633
C           11.28705254274025       14.63968692662830        9.89762897826505
C           11.56212138803793       13.58698716796275        9.05142698663747
C            9.22341201359961       10.70085212498575        8.43481922229341
C            7.98742456517134       10.58793390084563        7.82754604633456
C            7.13601722805481        7.75893687344254        6.09508234240797
C            6.97900496415207        6.39182551664137        6.04342709020267
H            0.92339771822558       -1.77309455628539       -0.57607313367221
H            0.55183208190233       -0.14810397661355       -0.00867968649454
H            0.82480490568748       -1.43908504162472        1.15005812990236
H            2.96132724605924       -0.32011998859175       -0.75597816408403
H            3.23148835208404       -1.59923987477698        0.39507631603940
H            2.66315628116312       -0.01890094670856        2.27894409397920
H            2.40165851476531        1.25845495398192        1.12681842888887
H            4.79927477464292        1.05184222412921        0.35797626397707
H            5.05952422122757       -0.21812127383979        1.52085394457554
H            4.59613004207978        3.36697144650160        1.04232403543420
H            5.09434474775539        5.08857229201669        2.73591304975230
H            5.04900890689951        0.28095284222175        3.95227217904313
H            5.66123254808281        0.11120647519553        6.54628077805049
H            5.65467726191050       -0.64611411507006        8.87850303237640
H            5.98303094297679        0.46313277639928       10.18070815093969
H            8.41481134658758        0.52460425837271        9.52073763134524
H            8.09019430854138       -0.56894599512692        8.20703545164480
H            7.31260012400066       -2.31522748772240        9.85266730712711
H            7.64324627394349       -1.22167519840097       11.16749371554172
H            9.75368329592186       -2.27348770060722        9.19527362644572
H            9.55492800933484       -2.82033386297034       10.85672327266358
H           10.08704450696400       -1.17465788034587       10.52339468998738
H            6.56461931324552        2.80413560194533        9.72881012766198
H            6.31464571809540        4.73461561270874        8.21578114839423
H            3.92630915763634        6.25696074889814        4.63139563181876
H            4.22309831743646        8.71152308051851        4.72248415090556
H            8.94553250823424       10.67328975462936        4.60865098613796
H           11.16752670737842       10.88433153360459        5.70135742962958
H           11.44730732578493       11.05347801209449       11.25303441946841
H           10.93381485791615       12.93283452112030       12.77958986282350
H            8.88357503281272       16.05388075062128       10.07426268619581
H            7.36325095999628       17.99130175351078       10.18544021405128
H            6.85413083085132       20.07081236819162       13.13856684451984
H            6.23988458784644       19.63759627117414       11.56765591588928
H            8.11058113761460       20.93047446110173       10.47727955447763
H            8.73356159579777       21.35653377691797       12.04493100603904
H            6.57378224881210       22.54148455753459       12.58301789670507
H            5.95021115523426       22.11655047457257       11.01311289316171
H            8.43411437648382       23.86257682872582       11.49464773728587
H            6.85642751946558       24.45731012842693       10.98685167879636
H            7.80503228637664       23.43486286721609        9.91185292651494
H            9.00953672368330       19.14968788658211       13.94622191212830
H           10.88347487257723       18.25590080261982       15.62027257327027
H           12.74506952235439       18.26219149081176       17.22499299793215
H           13.89698613732555       16.95632676055198       17.26118594748976
H           12.14149259577094       15.43641198473534       18.25016626172454
H           10.99030135586215       16.74037733681769       18.21297367487856
H           12.46193241772511       18.08529399472411       19.75667448979901
H           13.61549027425125       16.78065179555812       19.79301971231036
H           10.71030790143935       16.57456084640456       20.77669726902292
H           12.12940719890349       16.68536066435057       21.81337908822541
H           11.87314966050256       15.25903402662674       20.81313648602678
H           13.68170686436438       15.03899875728500       15.75446650967202
H           12.88355872724415       14.20412626006349       13.57749265031195
H           11.25744352728935       15.64818655108163        9.52433705470472
H           11.73957926717833       13.75656395717163        8.00256119358664
H            9.30794665548243       10.70693074450711        9.50829993083273
H            7.08909128346112       10.50382601108434        8.41597837458845
H            8.03558153489072        8.18155822673378        6.50656145512998
H            7.75402956174551        5.73809135669818        6.40327189203083
