78
 energy: -16.070193231355 gnorm: 0.000528727700 xtb: 6.5.0 (97a52f5)
C            1.30214507080855       -0.11830768578657        1.88702129384371
C            2.78329618232576       -0.07841799215531        1.54461126063266
C            3.11517853661727        0.95658175611734        0.46888097268329
C            4.60173061295033        0.99461689366881        0.11173875299817
C            4.92238982571276        2.00493602754391       -0.95124112944868
C            5.48690426110308        3.23933622674945       -0.62125237646382
C            5.73512332608484        4.17249394122530       -1.58722148591818
C            5.40247960931328        3.95140902094105       -2.94154647443618
C            4.94091029904464        2.65973593993963       -3.29773502765404
C            4.67077479681442        1.73103531967978       -2.27182191272022
C            4.86599801968935        2.29477091306680       -4.69084700393815
C            4.50724039460426        0.98091198886427       -5.09364340951230
C            4.62933314986185        0.57186931992745       -6.37941775221739
C            5.12013171214181        1.45302921713882       -7.37502700614882
C            5.38689418994766        1.00342382099818       -8.67591946569508
C            5.94742301873531        1.84825360105913       -9.59793529169769
C            6.19272747349627        3.17091829851228       -9.27564400619545
C            5.84960439659673        3.70224937965650       -8.03043771891896
C            5.38984693686379        2.80132767729811       -7.02980345459312
C            5.27154836805836        3.22255475953476       -5.67110718065565
C            5.61782442071152        4.56777830351871       -5.31381438985515
C            5.58540891005167        4.96204530691353       -3.96489698339267
C            5.74651859231779        6.37369305837856       -3.63990629034324
C            5.39616702315031        6.91438130285686       -2.40043223643327
C            5.66033125378346        8.23343089519927       -2.07726294850133
C            6.24414795384208        9.06764483433705       -2.99454912763353
C            6.51283826166935        8.61284823827668       -4.29316874057679
C            7.02464710496796        9.48505927477476       -5.28651066984283
C            7.14370139026300        9.07474800893138       -6.57231932373456
C            6.76015695285769        7.76832309842825       -6.97649828375323
C            6.66479510553441        7.40966166894609       -8.37033930614833
C            6.93121151736279        8.33753564504719       -9.39758270844256
C            6.65757995972587        8.06893231129222      -10.71509630643071
C            6.97089267222205        9.07845340778155      -11.78082362880272
C            8.47047454083378        9.34785230043844      -11.97715068053522
C            9.25721810361370        8.16417489491361      -12.55957336486378
C            9.50684586244859        7.03858123224223      -11.56689958696846
C            6.05375956258412        6.84994710071692      -11.03647475255282
C            5.81321963686338        5.91524915941104      -10.07061815507010
C            6.18027771085216        6.12594135986147       -8.72386133242281
C            6.00627710842598        5.11260912965389       -7.70193012262244
C            5.98454445240587        5.50331328648863       -6.35199760275292
C            6.34316910920926        6.84534924065983       -5.99586616092504
C            6.22533843103982        7.26812433512707       -4.63808766773870
H            1.07838505641825       -0.86105687992214        2.65618540144748
H            0.70069126942341       -0.36350998956293        1.00959623965018
H            0.95556611439940        0.84959636968045        2.25409266179359
H            3.12043727702400       -1.06874576972883        1.21044807961750
H            3.37442475153878        0.13308395744180        2.44563669936135
H            2.79216143047479        1.95144960249418        0.79893971521830
H            2.52623248167020        0.75233477599396       -0.43359192890538
H            4.92980854144321        0.00324013651255       -0.22184797983790
H            5.19363697659633        1.20653642562601        1.00961768373473
H            5.73392450451396        3.44318105856419        0.40697907039269
H            6.26869405747143        5.06560680717485       -1.31477605758108
H            4.26708235907782        0.76611523928770       -2.51296864378780
H            4.15503113438653        0.27797463499114       -4.36124894819803
H            4.38444750863121       -0.43956421745790       -6.65561773526248
H            5.19130142329452       -0.02502752699929       -8.92707704130778
H            6.20302940069563        1.47900041456542      -10.57807441359940
H            6.71822595656439        3.78356085151203       -9.98636389862235
H            4.84887659329007        6.31384349497696       -1.69577695622267
H            5.40148262481385        8.60800901662180       -1.09999439880048
H            6.45528874600388       10.09275765064930       -2.74235436107534
H            7.28732023109580       10.49161566684664       -5.00886787213338
H            7.51328217638463        9.77038976159832       -7.30325015412948
H            7.34672904708999        9.29790671810477       -9.15870876894537
H            6.44906099427909       10.01142117266115      -11.53264157828234
H            6.53475835881666        8.74915663177481      -12.73081322037702
H            8.91797381555716        9.64232726970840      -11.02067459944182
H            8.59301305603193       10.22229874262605      -12.63139727123483
H           10.22339259414596        8.52165580432436      -12.94451629771575
H            8.72770739146492        7.77912017067677      -13.44122983332511
H           10.02826356477129        7.40254345523754      -10.67959779545021
H           10.11348461911678        6.23901783741045      -11.99861854551709
H            8.57499012643765        6.58581366478964      -11.22846647447828
H            5.77806250252340        6.65551080969055      -12.05918796707863
H            5.26415749702445        5.02872042398584      -10.33415402344214
