50
 energy: -9.293089993216 gnorm: 0.000960732762 xtb: 6.5.0 (97a52f5)
C            0.85957288981753       -0.18032821989397        0.21846073014751
C            2.37077423168391       -0.01229509245857        0.19379186210487
C            2.88410650878193        0.52174589254933       -1.14327475826146
C            4.40170460319251        0.71210812478024       -1.17303651527909
C            4.89519354027454        1.25151692243484       -2.48547853331705
C            5.41696394757938        0.37239246859536       -3.42223725788573
C            5.84462891684080        0.80558635881529       -4.65757270815319
C            5.75357924170283        2.15044291804366       -5.00988076035729
C            6.18173004365095        2.62609750435927       -6.28357362112734
C            6.07354502791480        3.92827050614205       -6.62118884230609
C            5.52480719450951        4.91519413769274       -5.73297263791045
C            5.37672941580271        6.29037027058146       -6.05316742154733
C            5.68703129270255        6.99979712343337       -7.36177187133303
C            6.39798306194907        6.28103287951039       -8.50920408993972
C            6.68908151893991        7.20765027515181       -9.69191501017175
C            7.37235655002780        6.48977710662332      -10.84508937463881
C            4.84412977726793        7.13684814505782       -5.08720732181266
C            4.45136816858134        6.70070468581042       -3.84430869428236
C            4.56844971270099        5.36046858356545       -3.50006973744942
C            4.15008512485868        4.88307403924160       -2.21915126632910
C            4.25254363012554        3.57962313768032       -1.88947918479703
C            4.78848788847416        2.61953305320548       -2.80740145598782
C            5.21838951636984        3.07391329016263       -4.08386849716039
C            5.10802262711924        4.45621768961154       -4.44600865116265
H            0.50368103090297       -0.56353337929940        1.17773489104519
H            0.52679081923411       -0.87434720669003       -0.55598152288546
H            0.35280167064260        0.76966613477485        0.03735801549122
H            2.86271602003098       -0.96890657309502        0.41537400537275
H            2.68864996529410        0.66264338645448        0.99986823324364
H            2.38730007098864        1.47134872234458       -1.37538527754679
H            2.58513849580577       -0.15564609017773       -1.95260752134601
H            4.89531011352695       -0.24416186905016       -0.96427479801391
H            4.71922554932168        1.37146175348514       -0.35797254267790
H            5.48186317847110       -0.67348435247371       -3.17366606023975
H            6.24955992546120        0.10404718582292       -5.36689187249464
H            6.59963901290332        1.91812851477695       -6.97915444022368
H            6.42664375404692        4.21549736011879       -7.58858491943376
H            6.27877528039827        7.88984850925677       -7.11223833545331
H            4.74201792558067        7.40297179010612       -7.74700620711053
H            5.78033220169355        5.44857847132132       -8.86617912437686
H            7.34365454163178        5.85503855054787       -8.15322685970954
H            7.30629886571635        8.04998810709752       -9.35165212549797
H            5.75120104419680        7.66550751890051      -10.03438308825579
H            8.32409685709941        6.05622573574817      -10.53166903874100
H            7.57579812057894        7.15903480640286      -11.68446088556545
H            6.75585686893755        5.67099214999852      -11.22150769719116
H            4.72786383483988        8.18003557700116       -5.33135431535720
H            4.04122725823961        7.39359947829124       -3.12930396715703
H            3.74416590654580        5.59006394985322       -1.51584905637592
H            3.92551725704230        3.25175996779679       -0.91887987054204
