38
 energy: -7.525346671127 gnorm: 0.000256563723 xtb: 6.5.0 (97a52f5)
C            1.10435270833385        0.52327408756829        0.24311863498215
C            2.54450558694894        0.06290532092428        0.08082241623530
C            3.00403258577121       -0.85330152136031        1.21528917938661
C            4.45095533767350       -1.32304618165674        1.05919202461027
C            4.89513387026461       -2.22407967719029        2.17585344774343
C            4.80788347905860       -3.59821580480478        2.00552197495022
C            5.17219769758255       -4.47832599641422        3.00150959750145
C            5.63897303093957       -4.01081896806108        4.22791342164893
C            6.02523789533366       -4.89867334645895        5.28331964224588
C            6.47204605497922       -4.42711155327637        6.46733312616350
C            6.57408474147058       -3.02036057573329        6.71251261334868
C            7.02984959914779       -2.50842377211123        7.92853056759312
C            7.11326944748699       -1.14666747382417        8.13474649966135
C            6.74668131207559       -0.26071728929100        7.14249202488743
C            6.28440087550612       -0.72184248209108        5.90876524660813
C            5.89235475100999        0.16613694127363        4.85819530698805
C            5.44906249648544       -0.30276223085814        3.67146093935795
C            5.35100193963251       -1.70955304218493        3.40564970116989
C            5.72792883027736       -2.61288090940066        4.43371380387319
C            6.19729954298801       -2.11721996159107        5.68774375185570
H            0.78785170031436        1.17817602112505       -0.57195919589821
H            0.96825987677751        1.07203371781512        1.17692699618682
H            0.41883835117718       -0.32597599276204        0.26685639329286
H            3.21484466151585        0.93075259007745        0.02196659733237
H            2.66962109652069       -0.45710580208827       -0.87831909205321
H            2.34186854256838       -1.72563657598261        1.27736522825402
H            2.88426391107374       -0.33994164406716        2.17694910822263
H            5.12478200434118       -0.46275739329650        0.98379673979131
H            4.56490159693675       -1.84804829682963        0.10342778586555
H            4.44164154609185       -3.98084851095335        1.06788670031943
H            5.09659615760052       -5.54005576810907        2.84033997920719
H            5.95183148980582       -5.95929703277870        5.11482916010186
H            6.75802452475480       -5.10806618993038        7.25039037455535
H            7.31688683491552       -3.19223914144228        8.70889653735628
H            7.46799813457795       -0.77094818301336        9.08076591025340
H            6.81422986005882        0.80019801379156        7.31231864061026
H            5.95703334783148        1.22647742540098        5.03234754706470
H            5.15683458017156        0.39425719958626        2.90651066872895
