62
 energy: -10.713681582124 gnorm: 0.000720604858 xtb: 6.5.0 (97a52f5)
C            2.92386502169964       -0.17869104256894       -0.32060914084436
C            3.63181629733000        0.80401033797803        0.59859885355593
C            4.44425360997062        0.11224608259663        1.69372328972759
C            5.14774515862874        1.08806254857939        2.62366081363857
N            5.91396573599344        0.39461761493046        3.66877770252308
C            7.20301370897072       -0.09845844993470        3.56555911075151
C            7.99541399631118        0.02614812656519        2.41362214590290
C            9.30090609800716       -0.37658199553207        2.28211547347177
C           10.01911923157511       -0.23287480040030        1.09870250535930
C           11.34008071414789       -0.58650606767988        0.89961862327525
N           11.99854157021515       -0.43880752337284       -0.28933523230251
C           11.40447566152740        0.08854347612437       -1.51487714057498
C           13.35723092940917       -0.85211134884659       -0.21068213992911
C           14.36360877682838       -0.85671249174107       -1.16713808688858
C           15.61396983057828       -1.31873576990712       -0.81550036700570
C           15.86694159524628       -1.77034489315289        0.46962986987066
C           14.86905602415758       -1.76535820211441        1.42691403858862
C           13.61581978395312       -1.30483201787454        1.08232114629190
C           12.33556913535347       -1.18404783954877        1.90738992252448
C           12.57127625024901       -0.23476939882014        3.09201828559334
C           11.88990963713766       -2.57858622491842        2.37207789592942
C            7.51586877907688       -0.75385847351306        4.83490844701379
C            8.57660698184440       -1.45550632076958        5.39126052207991
C            8.45840941242350       -1.97091286161454        6.68725046110024
C            7.31602426996009       -1.81935476487463        7.44202561292851
C            6.20513807375777       -1.12541937515863        6.91689184821163
C            4.95197141326429       -0.89179793713508        7.52669578702965
C            3.96353337485490       -0.20551984565069        6.85344732659864
C            4.14692448995912        0.28614215576004        5.55616474295976
C            5.36220660446759        0.08081991388866        4.93140416271591
C            6.36154016973563       -0.61608980283522        5.62529687739898
H            2.34867696571978        0.32922454936364       -1.09699913041212
H            2.23392873998897       -0.81299304241532        0.23767215584968
H            3.63746519548561       -0.83727425767494       -0.81757968877453
H            2.90151714676646        1.47917737445647        1.06216250680175
H            4.29342638362879        1.45667477479839        0.01511090529386
H            5.18362309285726       -0.55791430450744        1.24123182520233
H            3.79229969727338       -0.54237804294840        2.28306463903516
H            4.42275986858765        1.74808702170208        3.10718941063951
H            5.82150992379493        1.74405554053920        2.06673723120934
H            7.53732386276254        0.48462503760404        1.55649829940396
H            9.79167798441534       -0.80555429752138        3.12949644655503
H            9.49774160545023        0.19749036056894        0.26317902912700
H           10.49171648274890       -0.45464669024651       -1.74946913237359
H           12.08701597800194       -0.01655662862149       -2.35360825493774
H           11.16912061752196        1.14294679475194       -1.38841178420374
H           14.16851378902694       -0.50333595749661       -2.16310276426434
H           16.40346772064779       -1.32939248643089       -1.54866113634586
H           16.85003708334763       -2.12849933046564        0.72621951199540
H           15.05801423492110       -2.11406421786423        2.42673683038263
H           12.89249110982709        0.74317112784864        2.73644977420046
H           13.34686843306942       -0.62400894415629        3.74970043459299
H           11.67091002878846       -0.09566969600705        3.68557253291370
H           11.75516275010368       -3.23819620188014        1.51594476391761
H           10.94964702862122       -2.54252498435016        2.91676677024532
H           12.63835360760798       -3.02542535874850        3.02468047098323
H            9.48048256483255       -1.61744911304022        4.83703929331504
H            9.29122130885651       -2.51035145131385        7.10702096934719
H            7.25452706348310       -2.23257256324180        8.43318663400884
H            4.77956540824537       -1.26191176661308        8.52171747687576
H            3.01602255693932       -0.04295547571910        7.33956026304342
H            3.36071943006784        0.81178942116597        5.04549035883002
