114
 energy: -18.741316169128 gnorm: 0.000761550686 xtb: 6.5.0 (97a52f5)
C            2.44566578256244        1.11413005864290        0.61111525025440
C            3.73392718826001        0.30931469772601        0.67635943337498
C            3.83158785867012       -0.74231182157429       -0.42874609012921
C            5.11513503341835       -1.55559362667139       -0.37201450759613
N            5.15580030374016       -2.57965682522526       -1.42747934070899
C            4.40567339267131       -3.73958364773396       -1.46400992427019
C            3.59156687894735       -4.25947619232585       -0.37435936789999
C            4.12546043734406       -4.42882325825811        0.91135971264326
C            3.35002296782678       -4.88916397430743        1.94080247876739
C            1.99517958458453       -5.20425220606587        1.74903601249155
C            1.15787304236401       -5.66864499111780        2.85845148421702
C           -0.01585892930104       -6.40077339677935        2.63129000144664
C           -0.81152843778667       -6.81280329663421        3.66831911622452
C           -0.48482398858009       -6.51918643724324        4.99983743961042
C           -1.34905747723302       -6.93663846600716        6.10726736205142
C           -1.31343188884117       -6.27575975093169        7.34549500117919
C           -2.13616798226924       -6.64704447777765        8.37401772770964
C           -3.04570993061803       -7.70400679388801        8.22587404792295
C           -3.95266416243426       -8.06833905043043        9.30439800162941
N           -4.75356192926361       -7.19263399948852       10.01288009108485
C           -4.98836530283812       -5.77505834794080        9.69093637333991
C           -5.72274165798146       -5.60780353093181        8.36957218837013
C           -5.95552436029110       -4.14560508645637        7.98928142971752
C           -6.66427121214711       -3.99063983266014        6.65310539898269
C           -5.50233186146531       -7.92668924082429       10.94126856370495
C           -6.45717677899545       -7.54976926063175       11.88668932370638
C           -7.02664228479703       -8.51317804403845       12.69517837746252
C           -8.02490282582555       -8.12758941274837       13.72911093395835
C           -6.62634251710316       -9.85359917739451       12.56451738045524
C           -5.69346868795108      -10.24285337406874       11.63475451093971
C           -5.12847039984036       -9.27150646269235       10.80879129485826
N           -4.18355677097090       -9.34550406968430        9.77898798761944
C           -3.39964498433559      -10.55315144972552        9.47640458992073
C           -2.21976329535103      -10.70973175979289       10.42240786927888
C           -1.38213130723253      -11.95685453119739       10.13844986788208
C           -0.20448257724872      -12.10573325178872       11.08864000131949
C           -3.07862525426410       -8.37402108142189        6.99403939140271
C           -2.25461226302689       -8.00056851465204        5.96681587273820
C            0.69427533209221       -5.79561517373456        5.22727660171238
C            1.48984312185082       -5.38373926166975        4.19034754430480
C            1.46756013308879       -5.04029063136227        0.45820017122622
C            2.24145516692118       -4.58283298558901       -0.57372793492070
N            4.52939732912122       -4.29535004894504       -2.72285191197677
C            4.08974452535823       -5.63806162990342       -3.13154403453479
C            5.11174676272423       -6.69942552725674       -2.75673422324431
C            4.67899108084633       -8.11485015828551       -3.13903363630989
C            5.70513522162600       -9.16899598282348       -2.75490014331936
C            5.37786838384853       -3.48317746957581       -3.48438790843672
C            5.83658189163052       -3.57709535290262       -4.79801555353603
C            6.64584099508408       -2.57964867925928       -5.28446890899458
C            7.02195203250370       -1.47984426867955       -4.49511245985875
C            7.87013532076447       -0.40182524975061       -5.07201946131230
C            6.56584831954835       -1.38603616469035       -3.19529989014959
C            5.74891702764537       -2.39435930662151       -2.68242800219038
H            2.38902955691719        1.86065415007862        1.40548008111687
H            1.57228293176262        0.46725420856882        0.70484385377246
H            2.35741180227712        1.63918981073245       -0.34094850856323
H            3.82118240811528       -0.18361473574698        1.65286170223350
H            4.60099050367097        0.97902643423803        0.61631981097128
H            3.74947681890167       -0.26220012096868       -1.41033012829117
H            2.97203779068841       -1.41955033015526       -0.37120851926532
H            5.21656674008351       -2.04499119230454        0.59886429071873
H            5.98935046316994       -0.90821972409074       -0.47489784439077
H            5.16829251886605       -4.21920829205726        1.07186762771669
H            3.79371137741773       -5.03877557217748        2.90862202353444
H           -0.28775557397411       -6.66179344481150        1.62420843720630
H           -1.71955659285919       -7.34716993400233        3.45404703327969
H           -0.64774145626519       -5.44255161674675        7.48096836880586
H           -2.07645348169736       -6.14159564565996        9.32148703177537
H           -4.02823810902976       -5.25565234930776        9.66633868915303
H           -5.55441971980589       -5.31655040611051       10.50502746049274
H           -6.67963449131987       -6.13970047332764        8.41614186760594
H           -5.15833750288870       -6.10871163632101        7.57524278973098
H           -4.99219452727676       -3.62060526130925        7.96696803576330
H           -6.53117829334037       -3.65208398421151        8.78234359263643
H           -6.08628670290728       -4.44379361559911        5.84649054604541
H           -6.82449419150093       -2.94243084037384        6.39408135358862
H           -7.63933959252681       -4.47947905110106        6.66555949225464
H           -6.74008608863083       -6.51924972665000       11.98906169969551
H           -8.63175243573363       -7.28641090012164       13.39342229452527
H           -7.52875826965714       -7.83732840375538       14.65539814743976
H           -8.70010289153852       -8.95380497177052       13.95238868033286
H           -7.06770275684593      -10.58885620412913       13.21462931265259
H           -5.39669215427007      -11.27129048756423       11.53675603361095
H           -3.05313586730481      -10.50454238826413        8.44231715960738
H           -4.06211187481710      -11.42058081953445        9.53415428560425
H           -2.58309665009518      -10.73281957533221       11.45586645570699
H           -1.58824999762674       -9.81613705740096       10.36318890532668
H           -1.02738641222354      -11.92519613993075        9.10051744472045
H           -2.02507988719718      -12.84439929392481       10.19321791623785
H            0.46602615902300      -11.24794237335162       11.02171637469499
H            0.38294183402742      -13.00054604744453       10.87481433737714
H           -0.54055754329186      -12.17160420999591       12.12430822492005
H           -3.79168730585246       -9.16709626980238        6.85338343877720
H           -2.29098109668895       -8.54335796468419        5.03955180731637
H            0.99132281296636       -5.57588558860928        6.23699434715705
H            2.37125289273531       -4.80523954873036        4.40151352627664
H            0.42540124260994       -5.24040546090009        0.28574520098080
H            1.80833702086091       -4.42503995223532       -1.54574010222591
H            3.90895900076532       -5.63453377622430       -4.20935058996368
H            3.12709476263907       -5.85394288142062       -2.66356443094964
H            5.30521195805348       -6.64901984823833       -1.67929038499392
H            6.07165536278365       -6.46220471071384       -3.22895770080858
H            4.48316590052653       -8.15412609171446       -4.21801265347147
H            3.71441576691156       -8.33799257944502       -2.66574893634352
H            6.66251353009673       -8.98260645419711       -3.24335236476375
H            5.38314729670653      -10.17397132654611       -3.03397488351390
H            5.88619340353728       -9.16818921550248       -1.67918926953284
H            5.55204993127258       -4.41359914667107       -5.41004959949337
H            7.00270482408424       -2.63174453858028       -6.29837144229787
H            8.54571331144444       -0.79642474675191       -5.83116248176968
H            8.47887441283662        0.07338157643281       -4.30253545156398
H            7.25304190146184        0.36728234499702       -5.53686909315869
H            6.83317918300992       -0.54423982268716       -2.58491083021829
