108
 energy: -17.832069748574 gnorm: 0.000595619853 xtb: 6.5.0 (97a52f5)
C            0.54297878401202        0.17995557103148        0.50683058174923
C            2.00623152690105       -0.00688267672227        0.13849356681284
C            2.70234261706409       -1.06671671014503        0.99289886583775
C            4.16773674533345       -1.25943516474273        0.62908595140539
N            4.83177864495022       -2.25947498950008        1.47969789882026
C            5.79012948090446       -2.02986096112219        2.44792618997171
C            6.27487881067543       -0.73081803611681        2.89116647445864
C            5.38686030988207        0.30197916045132        3.22627990766780
C            5.84571651504713        1.50649305607609        3.68678848427323
C            7.21945921966834        1.75401127314060        3.83439483178294
C            7.71271586074858        3.03370485508472        4.35248762710288
C            8.99905305493611        3.49669467500712        4.04291287748173
C            9.47080280247277        4.67965886180071        4.54819920140122
C            8.68810386450672        5.47244668106213        5.39922369719807
C            9.20836884448154        6.72019734025180        5.96601798111440
C            8.71500190653587        7.23136668121294        7.17700115855795
C            9.22925644167972        8.37390016395026        7.72810854534875
C           10.26806981933253        9.07494584239056        7.09782756256728
C           10.86041594365961       10.25100021427700        7.71724663608724
N           12.21248055177820       10.46253614259121        7.91169327440227
C           13.28382519760223        9.47304098532175        7.70861921855768
C           13.18004861528790        8.31743223213293        8.69208344327566
C           14.25705391906987        7.25179350188806        8.48843716063661
C           14.12533912422979        6.08933999689797        9.45962954495067
C           12.37931442621140       11.67580286987771        8.59095249027930
C           13.51249519790643       12.35148627082597        9.04731352570541
C           13.34732600323878       13.55854551056363        9.68178155932986
C           12.07612756429231       14.10548590873484        9.87215903912606
C           10.95121541068736       13.45124348835130        9.43315772683181
C           11.10249158358112       12.22253671045807        8.78885896818145
N           10.17284716855728       11.32105945009024        8.25792797675854
C            8.75110729458964       11.64379182664158        8.05904413747351
C            8.54695090559160       12.57075940977171        6.87083947430901
C            7.08132157670973       12.93791930949095        6.63715878194981
C            6.89114736983165       13.88693469529120        5.46449574264920
C           10.74974622585192        8.57859769958618        5.87776675096770
C           10.23557280822333        7.43484553329575        5.32995313790048
C            7.39828702469389        5.01396545750208        5.70163105959054
C            6.92441620179101        3.83334742216315        5.19193385937663
C            8.10595493606523        0.72412467847820        3.48250457908565
C            7.64870168003160       -0.48225745547527        3.02615564895342
N            6.19062528618951       -3.25261365240709        2.95325477861992
C            7.01209336901431       -3.46858725666514        4.15595438457010
C            6.28649325199841       -3.03788329046768        5.42128577007559
C            7.12850132073114       -3.20499205383522        6.68628996691158
C            6.40358101340059       -2.74544290731839        7.94131175813470
C            5.46143245749322       -4.26125666262197        2.31075854185477
C            5.44268020858962       -5.64933869341432        2.45876165705432
C            4.60146098224818       -6.38485486021263        1.65998596405405
C            3.77917290574282       -5.76530430401033        0.71599920046476
C            3.78139306523028       -4.40055970204794        0.56209169597055
C            4.62515973071560       -3.63881350427738        1.37181317206986
H            0.05923493425496        0.93806618398045       -0.11182802175138
H            0.43534445097221        0.48706970576455        1.54796064019460
H           -0.01528747722216       -0.74923055063642        0.38509014285327
H            2.54340869801514        0.94506192903911        0.23439012969961
H            2.09630989915877       -0.27996809975439       -0.92040473698040
H            2.17299578810244       -2.02121053002104        0.90157808426379
H            2.61797144628767       -0.80279812312558        2.05225355351458
H            4.71371003528095       -0.31599552578996        0.70865098918034
H            4.26695361665348       -1.57795095727344       -0.41202327395176
H            4.32998390118960        0.12375001835076        3.14706656764320
H            5.14261823342163        2.28500582497848        3.92291719092084
H            9.61975131321892        2.92072521662626        3.37998319292532
H           10.47259326920813        4.99148532315879        4.31249822493411
H            7.94795864540403        6.69137840693059        7.70243346941454
H            8.87179192229982        8.72254393230391        8.68102253212414
H           14.25007502833034        9.97354416074942        7.80449240776072
H           13.23720065813096        9.10903679007264        6.68034364430144
H           12.18865870090896        7.85857508498223        8.60838532935549
H           13.22710784232075        8.70645962508168        9.71537961540913
H           15.24731643651834        7.71441031693104        8.58447532622077
H           14.21187170534303        6.88538021853162        7.45511283816510
H           14.19907375533523        6.42986108608004       10.49327647629344
H           14.90101329717982        5.33714050247431        9.30495942094423
H           13.15956002279553        5.59383106508258        9.35131223107961
H           14.49003958313542       11.93097280416114        8.89703400549046
H           14.21175953180433       14.09371425696546       10.03813355214052
H           11.97777355737253       15.05400157351390       10.37338155439747
H            9.96989096492843       13.86343361156001        9.58328236751484
H            8.36761603805237       12.09677564304028        8.97687195400640
H            8.19025681271864       10.71778292768012        7.91786416363219
H            8.96174044019712       12.10222542008831        5.97125738492254
H            9.13886984809115       13.48143762613362        7.01462236890229
H            6.67024814967908       13.38302330860115        7.55193475836413
H            6.49946486873725       12.02119818861497        6.47892044603388
H            7.43711449090330       14.81845542628440        5.61976088254422
H            5.84115591343344       14.14317422998057        5.31200212679879
H            7.26085263340687       13.44662486287948        4.53756237820565
H           11.51577573265394        9.12768217992872        5.35959265452462
H           10.60828779791692        7.08989464187616        4.38220980475311
H            6.76208171538789        5.61104887037915        6.33027249110704
H            5.93978291868819        3.49771199202151        5.46445265967124
H            9.16355139554164        0.87610450790351        3.60278992713713
H            8.34590546589409       -1.24982194123909        2.74071261732844
H            7.95038998766657       -2.92156220350271        4.04540285951210
H            7.28777533517621       -4.52425263287124        4.21093241622839
H            5.35277309766962       -3.60358881420303        5.51523128905216
H            5.97579041094175       -1.99192650762536        5.32183794629821
H            8.06795038794697       -2.64991191194616        6.57050025256961
H            7.42803435361761       -4.25581464707896        6.78594928709833
H            6.12857986413377       -1.69201038915583        7.87318754237573
H            7.01677063659916       -2.86815611505107        8.83595175023984
H            5.48282157451640       -3.31013762697129        8.09332583426315
H            6.07742413655017       -6.12453733506123        3.18424796330875
H            4.57478529763013       -7.45700120166323        1.76209865789160
H            3.13238738395805       -6.36833326555327        0.10065978462454
H            3.15365798187319       -3.91962967890187       -0.16585168510278
