105
 energy: -21.459921385113 gnorm: 0.000621590688 xtb: 6.5.0 (97a52f5)
C            2.34828730223272        0.89895937562470       -1.56384277401498
C            3.39780198100017        0.40170343944917       -0.58253277951106
C            3.79728346404100       -1.05214129905138       -0.83238578019223
C            4.83494527163568       -1.56421789919845        0.15525050874720
N            5.21369364588180       -2.96334159257969       -0.10526851909599
C            6.43543640870291       -3.44849760457297       -0.56878386262717
C            7.60080139782755       -2.63297822339209       -0.92841219465722
C            7.47106418157117       -1.45757879745710       -1.67097132119811
C            8.57710348377035       -0.72410402851181       -2.02250134505443
C            9.85297370440395       -1.13799538137098       -1.64660961311438
C           11.03155741925063       -0.37214454163768       -2.02546729256796
N           11.01375926421306        0.72149712919179       -2.79661118690756
N           12.23655207240170        1.13657264120644       -2.94256886495598
C           13.04254547476244        0.31534361842560       -2.25904745156670
C           14.48914895264881        0.45667564213664       -2.17496785188909
C           15.15997650667269        1.41719868367154       -2.92859033921722
C           16.52477124245809        1.54207855384966       -2.84898929045524
C           17.26799452290152        0.70956157171077       -2.01004858181519
C           18.72895742243127        0.82731881664866       -1.91905029842358
N           19.40370433193118        0.81892288260250       -0.77436562908472
C           20.71050381329076        0.88784983263880       -1.09285103498187
C           21.78075688034758        0.94183891614998       -0.08849159437645
C           21.52489438147188        0.52061948810647        1.21388659332092
C           22.50484400924342        0.57596625066417        2.18037619377435
C           23.75931943297078        1.05972709678215        1.86613544253250
C           24.02867851687152        1.49186938390506        0.58279330695017
C           23.04990894125232        1.43719959348896       -0.38412335057342
C           20.86316417600901        0.90524164900478       -2.49610781712470
C           22.10487872043552        0.82315311623955       -3.28213308456644
C           22.99577589315621       -0.23485275183336       -3.09946199451346
C           24.15572054902092       -0.31102923974540       -3.83711539623661
C           24.44728894683159        0.66360980417142       -4.77107508843887
C           23.57408324401116        1.71554757341881       -4.96726481489254
C           22.41246866129208        1.79606641203657       -4.23221081935115
N           19.59186615390924        0.89310464214358       -3.01263186349318
C           19.24300796102029        0.59082073169096       -4.41135622024852
C           18.97203734763251       -0.89130032354943       -4.61419547153343
C           18.58926823166260       -1.24260104557332       -6.05136893831400
C           18.30571376888664       -2.72491875549004       -6.23716349872776
C           16.59078520099234       -0.24017710215284       -1.24372130441018
C           15.22657855415184       -0.36920185699995       -1.33076673595299
O           12.31059116848633       -0.66346131129289       -1.65659450672064
C            9.98734178594898       -2.31340874063630       -0.91292602516731
C            8.88235879078349       -3.05117718620655       -0.56651142462911
N            6.42583712744772       -4.77576355962909       -0.63125717368454
C            5.20282233646512       -5.17823870808434       -0.23574263986964
C            4.80649154492597       -6.59093171358589       -0.17431099914688
C            5.54301770545164       -7.53966270852240       -0.87914571204817
C            5.20348144145180       -8.87388315631933       -0.83687004411594
C            4.12346834591698       -9.28832803610121       -0.08321051006178
C            3.38658538045759       -8.36384150250912        0.63001048968679
C            3.72445056724277       -7.02962694957789        0.58732848541765
C            4.41553438938274       -4.05782689801529        0.10424239245090
C            3.00552999551103       -4.01972417547001        0.53139967547249
C            2.65669992871689       -3.57040905580234        1.80457464408132
C            1.33759799957936       -3.53130559486095        2.19727556306569
C            0.34343203922217       -3.93616716734016        1.32831225428533
C            0.67119393336791       -4.38149736168175        0.06282869488840
C            1.98869698251395       -4.42356173903177       -0.33441619811460
H            2.06880997836365        1.93751541378780       -1.37443353124080
H            1.43910545184116        0.29801453839941       -1.50610065113603
H            2.70955520208078        0.83800874919169       -2.59183798168078
H            3.03067018243906        0.50396470282926        0.44710402377183
H            4.29206409511142        1.03680331494698       -0.63007400513014
H            4.17446649976165       -1.16543537793791       -1.85491968344673
H            2.90781138447754       -1.69098803404810       -0.78968706270769
H            4.45217097473992       -1.49785694241594        1.17737360075693
H            5.73308915054045       -0.94166473740185        0.13673115371489
H            6.49397549547566       -1.14750764884419       -1.99561414317058
H            8.47298681950808        0.17799673344580       -2.59954626310675
H           14.59020856386296        2.06164055373486       -3.57484110873591
H           17.03164299769590        2.30639751995731       -3.41151321025440
H           20.54366436372090        0.14985041852725        1.45366702759730
H           22.29181095214613        0.24357900649719        3.18320490974022
H           24.52608755539379        1.10343300255603        2.62226672686799
H           25.00601416676636        1.87452536990801        0.33774455373803
H           23.25866404577041        1.78816773271821       -1.37862723171678
H           22.76240364982879       -0.99222652227613       -2.37099811697973
H           24.83712827594443       -1.13202071267864       -3.68496749732610
H           25.35630340528595        0.60309082110503       -5.34691123646895
H           23.80293203707112        2.47581250571739       -5.69608068457066
H           21.73292170320942        2.61849964513247       -4.37505487216002
H           20.06034703700347        0.92094080881469       -5.05775617663606
H           18.37324226445990        1.18518080152268       -4.69974290845484
H           18.17710807094804       -1.21141836371610       -3.93061243056627
H           19.85488409200451       -1.46633352559481       -4.31131110794390
H           19.39167391232668       -0.92237540179116       -6.72877038804776
H           17.71332641227004       -0.65059745998106       -6.34742055255880
H           19.17775833665785       -3.32841252102116       -5.97963460441499
H           18.03250758985170       -2.96467190214146       -7.26693529365502
H           17.48653100928955       -3.05259769940733       -5.59480874741128
H           17.15810524579775       -0.87862186208243       -0.58912501581968
H           14.70760650207898       -1.10844630455312       -0.74526825781406
H           10.97373841442575       -2.63707123516194       -0.62848246433304
H            8.99044887463854       -3.96379380522387       -0.00665891234203
H            6.38584390578311       -7.21068910621200       -1.46156454507159
H            5.78180136418413       -9.59460848134033       -1.39154623749313
H            3.85785233410558      -10.33230434665439       -0.04962633059272
H            2.54564582177507       -8.68707615181573        1.22160198131930
H            3.15465519166333       -6.31497506441106        1.15266892188450
H            3.43522417270735       -3.26498314716329        2.48205565708857
H            1.08042028570313       -3.18467086071075        3.18482445806162
H           -0.68840912515060       -3.90463049514073        1.63796937760910
H           -0.10518536207905       -4.69701289997778       -0.61479471067427
H            2.25083380038032       -4.76843186624387       -1.31982143555395
