101
 energy: -21.085308802865 gnorm: 0.000442366709 xtb: 6.5.0 (97a52f5)
C            0.99535157371444        1.57069729498357       -1.00747296730688
C            2.36122285338391        1.04089793164816       -0.60043661231906
C            3.06066499125193        0.28344072159974       -1.72868049265892
C            4.43165482540552       -0.24683824117175       -1.33381384703293
N            5.10109467308802       -0.93640604337923       -2.45302870944290
C            5.14084004726422       -2.32860365110291       -2.60575731245416
C            4.85743409443799       -3.30729836079467       -1.54902852038872
C            4.10097642109436       -4.44430838836199       -1.83439632877893
C            3.85779684149226       -5.38692833434420       -0.86659581220712
C            4.37136043934831       -5.23190992892381        0.41885154142513
C            4.14789553927831       -6.24425903071121        1.44037828324690
N            3.43137883594778       -7.36024422078196        1.26111555312498
N            3.46060325145259       -8.04457361373561        2.36491493372903
C            4.19522381643890       -7.36980517672970        3.25723055859918
C            4.47894849838849       -7.82687346277243        4.60968441783444
C            5.20845472218264       -7.02482824466040        5.48317614304806
C            5.50544131580069       -7.46190902211415        6.75063609113925
C            5.09443214845637       -8.72296376421368        7.18409426203431
C            5.43601463694118       -9.19221954525078        8.53384575443197
N            5.31517480447785       -8.44412289361820        9.62366375137337
C            5.74765122454467       -9.20567022860868       10.64879376514215
C            5.85484972275041       -8.83515299489224       12.03833760652211
C            5.43761397523727       -7.57670013986779       12.47642193931635
C            5.54784394299927       -7.22501749328996       13.79552232938395
C            6.08160837483885       -8.12453792378903       14.70602631064567
C            6.49912248068870       -9.36586811023355       14.29438403299782
C            6.40010738441863       -9.76190866749222       12.95307877499181
C            6.82954714944000      -11.08523558563616       12.48681274857488
C            7.36396967198340      -12.03473435730894       13.36891985419977
C            7.74092305622915      -13.28089666689121       12.93866658038515
C            7.59206963220943      -13.63191749161429       11.60713899099838
C            7.07712368031630      -12.72900747911319       10.71565872699327
C            6.70013487983498      -11.44316843421895       11.12054291153325
C            6.16420140297718      -10.46714987876943       10.19747887899164
N            5.96650731571194      -10.45403807675103        8.82999833533042
C            6.53838604870585      -11.36542093061817        7.82159213602523
C            8.05810541249443      -11.29353081136339        7.78576336006259
C            8.68237182829131      -12.25425136283907        6.77417722512342
C           10.20105375429891      -12.18051461477777        6.75475556664346
C            4.34539628838282       -9.51626293110359        6.31301262243817
C            4.04536278785124       -9.07593597609899        5.04801063446023
O            4.64595994515756       -6.20737927444436        2.70790535096726
C            5.13433931930228       -4.10308531453074        0.70509959700596
C            5.37646697005329       -3.15806970653428       -0.26138063344262
N            5.44841690010568       -2.67557860235318       -3.84950859523896
C            5.63236472350310       -1.52386455175158       -4.52452816358916
C            5.94540829353018       -1.36409935401760       -5.92271810676969
C            6.13385932712655       -2.47763283085235       -6.74375479360514
C            6.42242197373187       -2.32281111210978       -8.07358146424929
C            6.52791246116262       -1.04903395069329       -8.61170929201758
C            6.34424665629631        0.05806369091210       -7.82080192246438
C            6.04684695489014       -0.06110038534397       -6.45581981863923
C            5.85125957826712        1.10321417483661       -5.58453035962350
C            5.96083822514140        2.41164358441144       -6.07552298651946
C            5.80621506486885        3.49995971177609       -5.25592956986205
C            5.54275342573622        3.32412111929173       -3.90748724827539
C            5.42528625474815        2.06063791265587       -3.39274434932092
C            5.55806528185866        0.93028496537800       -4.20749492866467
C            5.43051059079289       -0.41438782325256       -3.69020239598448
H            0.50605984845493        2.11095238861526       -0.19432701890723
H            0.33155988464878        0.75866441088383       -1.30894925235211
H            1.07418093839746        2.25348958871750       -1.85515455845086
H            2.26736469148196        0.38346400990394        0.27376146562064
H            3.00274169471514        1.86719138898511       -0.26732487696422
H            3.15206428996726        0.93045395558815       -2.60797215464395
H            2.43298273332209       -0.55136288852444       -2.06215935137762
H            4.32256875176178       -0.94550605727855       -0.50128652197160
H            5.08216305181105        0.54717963770315       -0.96063605210708
H            3.71097458788067       -4.57089608301089       -2.82929168855903
H            3.27561054094382       -6.26321847175743       -1.09191234509673
H            5.54029937335862       -6.05822078327009        5.14522560852291
H            6.07283803153863       -6.84148218730952        7.42226105252520
H            5.02738853440365       -6.88827247844979       11.75848647209488
H            5.22091375064050       -6.25271110715558       14.12599519615504
H            6.16867205739886       -7.84526788427028       15.74341866683168
H            6.90849191567078      -10.04119045112106       15.02283385866366
H            7.48345374200144      -11.79048421654973       14.40831168286210
H            8.14867495916494      -13.99288771839617       13.63768151017435
H            7.87923880044508      -14.61623894846048       11.27476064586896
H            6.95160194705357      -13.02205110565602        9.69160288425187
H            6.13950779892642      -11.10172816283657        6.83947567410786
H            6.18309022340195      -12.38048944229024        8.01178497073839
H            8.46239169799060      -11.49254257668938        8.78431400104508
H            8.36555185285542      -10.26531750990755        7.56138612828498
H            8.28030255383510      -12.04047892570137        5.77522203199522
H            8.35701516775030      -13.27838116093063        6.99888708641203
H           10.54381395427116      -11.17735589555068        6.49571579374684
H           10.63643628078552      -12.87417277402497        6.03243599451933
H           10.61970040810785      -12.42052142246897        7.73359693881140
H            3.99014028674030      -10.47410476492725        6.65177094155972
H            3.47567379524670       -9.69326119762738        4.37576619829482
H            5.54161735090078       -3.99091435124092        1.69516870554283
H            6.00004285301516       -2.30851207801831       -0.04313757049188
H            6.04673847755439       -3.45938827624286       -6.31222565088062
H            6.56646532436886       -3.18751773954990       -8.70050053526690
H            6.75616834503799       -0.92976723673537       -9.65833479688171
H            6.43272357993004        1.03178603889168       -8.26610209045899
H            6.17345724481460        2.57555228379507       -7.11583279664372
H            5.89647437052817        4.49573697848115       -5.65852497737651
H            5.43302076571119        4.18232544663144       -3.26464538765217
H            5.24187725271942        1.93932164404713       -2.34283022036301
