72
 energy: -15.031216026089 gnorm: 0.000589640402 xtb: 6.5.0 (97a52f5)
C            1.25351852795271       -0.20091862988389       -0.01760825385738
C            2.72149028257869        0.17988870833827       -0.12524434000381
C            3.24580752699389        0.11127920182071       -1.55914820913400
C            4.71336366067448        0.49484773790878       -1.67592384174957
N            5.18759750433037        0.47916103727763       -3.07020419598961
C            5.55770808457157        1.56143238540050       -3.86639160964963
C            5.48694523706006        2.97392458193373       -3.48109371769372
C            4.41671761240333        3.48269485376835       -2.74257450687135
C            4.37079485474280        4.81040817661410       -2.39651795250089
C            5.38946061605632        5.67943713623328       -2.77926889535402
C            5.35522531702629        7.08625756142868       -2.40657094337828
N            4.36203834957049        7.67221491563357       -1.72729133183452
N            4.66107256671531        8.92693237181924       -1.57015070354100
C            5.84878594803442        9.14915243453505       -2.14457441926055
C            6.53442866859822       10.43387521407633       -2.17269945192112
C            5.94493500239183       11.58149439697013       -1.60032767664857
C            6.58529278057330       12.78027046479797       -1.61982804443150
C            7.86319063490787       12.90665878994444       -2.21539516714018
C            8.55849160096056       14.13451991451407       -2.25177616652298
C            9.78997992028745       14.21888035959667       -2.83095844183617
C           10.38590672212715       13.08695336649682       -3.40072866778576
C            9.74307650190205       11.88616776232951       -3.38498403441684
C            8.46518568946823       11.76196809888911       -2.79300720941280
C            7.77320235795997       10.53537261462549       -2.75690805005132
O            6.32569148419926        7.99754189150163       -2.69357954820046
C            6.44848978708053        5.18073017562160       -3.53235965557452
C            6.49338301629443        3.85375815402866       -3.88195916532033
N            6.02565959457514        1.14728943299196       -5.03909781576367
C            5.94924638152778       -0.19753984877018       -5.04114852891990
C            6.39462314866547       -1.01983836772381       -6.17299057838786
C            6.63335629504076       -0.41472437237876       -7.40432823516798
C            7.06142528408612       -1.15263096893535       -8.48570137049692
C            7.26592729341337       -2.51186890131612       -8.35704934002483
C            7.04364705168453       -3.12867477492114       -7.14217897590966
C            6.61422596200076       -2.39188108855569       -6.06124517582196
C            5.42240257704659       -0.64860203348077       -3.81228287532425
C            5.13031496757086       -2.02793616607348       -3.38017440784067
C            5.88973340921137       -2.63941698186034       -2.38328203910510
C            5.60888930389045       -3.92471069987358       -1.97764040489526
C            4.56575816149328       -4.62170843572517       -2.55504499354562
C            3.80158373475540       -4.02978056292352       -3.54134213403931
C            4.07895533161453       -2.74530520101841       -3.95174143575641
H            0.88974737992265       -0.14438399448663        1.01042700802414
H            1.08388574130908       -1.21915268823108       -0.37149279888891
H            0.62989447022157        0.45875850529400       -0.62324710889208
H            3.32962386531825       -0.47341477130149        0.51396736695020
H            2.87911446790983        1.19199140893847        0.26968261166069
H            2.64424789671718        0.75839884093110       -2.20711314817067
H            3.09950150226853       -0.89869602735683       -1.95859939789827
H            5.33412810811900       -0.19312508310922       -1.09519618388585
H            4.89458209884982        1.48438548091887       -1.24900156367820
H            3.60765583598162        2.82892309180223       -2.47111029886783
H            3.54416577103923        5.19725428063496       -1.82669315278489
H            4.97475242366758       11.48825774379336       -1.14484243484781
H            6.12740698457658       13.64918714607642       -1.17982746312737
H            8.10196386702009       15.00567400499640       -1.81455132568764
H           10.31121109434497       15.16185701271312       -2.85236101840371
H           11.36017891052766       13.17001561956189       -3.85398832525628
H           10.20151467334504       11.01658420977953       -3.82330016114238
H            8.22052091267782        9.65971471572553       -3.19097622037296
H            7.23182218599620        5.85413678976663       -3.83495163692843
H            7.31336517355287        3.47145464346255       -4.46451842996485
H            6.47794739980728        0.64592565134655       -7.49724416553365
H            7.23708631940850       -0.66897252045417       -9.43264991687477
H            7.60061484081426       -3.08996073262644       -9.20282032582315
H            7.20701131104933       -4.18903223740667       -7.03920083537808
H            6.45261971124898       -2.87596617836941       -5.11591565906266
H            6.70585330637448       -2.09478746675107       -1.94074776372124
H            6.20410796974340       -4.38798676763861       -1.20782144558426
H            4.34785536717347       -5.62777536207390       -2.23588128117650
H            2.98651574350505       -4.57376597250062       -3.99008801348245
H            3.48644591547514       -2.27764404911218       -4.71914440018168
