66
 energy: -13.643819540080 gnorm: 0.000994230545 xtb: 6.5.0 (97a52f5)
C            1.55613300212788        0.94317655149014       -0.70828394128252
C            2.95300440105940        0.46811289723428       -0.34088279396062
C            3.27584802538741       -0.91282634156117       -0.91049307790601
C            4.66333685542546       -1.40654522941977       -0.52903023664109
N            4.96103774628873       -2.73340009399042       -1.09522002968467
C            5.89135203724785       -3.06286695221032       -2.07948996993224
C            6.74506196687202       -2.11619498356221       -2.80300740477471
C            6.26911513493210       -0.87543701483766       -3.23140631038143
C            7.09082986807029       -0.00034429880834       -3.89753795665923
C            8.41590235680602       -0.33485078413130       -4.16621315664536
C            9.30120576685702        0.59529057208960       -4.85260868617482
N            8.93799506045194        1.79819052324467       -5.31192664653193
N            9.97758479248026        2.35720939074169       -5.85660250739578
C           11.01031951632827        1.51472727277589       -5.74830470481287
C           12.35931534872654        1.78366461052659       -6.23396111696949
C           12.67194773067375        2.99018419734075       -6.85250169378027
C           13.95106364143396        3.23524760482119       -7.30027607743658
C           14.93579891669108        2.27986961768372       -7.13772264172887
C           14.63819109548832        1.07789035975330       -6.52554124356682
C           13.35986057068723        0.83052626254497       -6.07645025210717
O           10.61931537978504        0.37399361347553       -5.11527951173391
C            8.88782464393086       -1.58007593390690       -3.76125856795706
C            8.06602374974065       -2.45701184342828       -3.09759592945483
N            5.94760511112393       -4.37839053217052       -2.25656336271846
C            5.04740571307907       -4.92738996093730       -1.41836921920107
C            4.83089039874181       -6.37621150605771       -1.31944208937845
C            5.33862003670864       -7.21155054026697       -2.31130734490002
C            5.16767425595684       -8.57657273741884       -2.24469251142157
C            4.48950832530489       -9.13647811551588       -1.18049882243931
C            3.98490077736994       -8.32585146843900       -0.18339431094362
C            4.15431812916588       -6.96111608310442       -0.25014675107550
C            4.40972792819070       -3.91427095339503       -0.67153405574823
C            3.34947668765815       -4.04062997950371        0.34553604939337
C            3.61725556845557       -3.78305808442053        1.68968360112217
C            2.62390064833052       -3.89553141099394        2.63627820401996
C            1.34679772523692       -4.26315315795394        2.26022743038936
C            1.06377041738594       -4.51872824956575        0.93287675131601
C            2.05354156856534       -4.40855790515448       -0.01763619060547
H            1.33800630400458        1.93136559837348       -0.29801065923961
H            0.79527589680001        0.25638851794134       -0.33359015213099
H            1.43187249722619        1.00194963917044       -1.79080411022567
H            3.06884990022227        0.44511627675875        0.75060961724766
H            3.70290658743404        1.18916227320282       -0.69169742187955
H            3.17660580812242       -0.89951812779355       -2.00168573693454
H            2.52615929393180       -1.63595559761039       -0.56963480131058
H            4.75723559301037       -1.47139671141133        0.55855054401764
H            5.43282770504007       -0.69923659995902       -0.84794512962090
H            5.23901164470349       -0.61997495371218       -3.05881583260656
H            6.72107660022217        0.95684567277582       -4.22103844640889
H           11.89931479101981        3.72946007548482       -6.97316012785833
H           14.18426739043765        4.17354215024313       -7.77664155567601
H           15.93626473458603        2.47301032631444       -7.48877297173937
H           15.40674385845895        0.33285073538918       -6.39813016564794
H           13.11695150004980       -0.10244669478856       -5.59740817752569
H            9.90991585619776       -1.84156300528492       -3.97522455029291
H            8.43416812113869       -3.41850975781383       -2.78455976379142
H            5.87098390773154       -6.76952726373619       -3.13531464121622
H            5.56549189964757       -9.20782402653286       -3.02234676777393
H            4.35656099722083      -10.20467750279371       -1.12753277364790
H            3.45834194662393       -8.76193162136090        0.64981672569541
H            3.76821367689222       -6.33700321050201        0.53425486877949
H            4.61586125092813       -3.50354349096143        1.97846156175805
H            2.84357421728703       -3.69652800774098        3.67250805835049
H            0.57084143358364       -4.35084890651288        3.00301203849425
H            0.06640297570952       -4.80393135336197        0.64027112362533
H            1.83931271297853       -4.60340374672936       -1.05434367273735
