46
 energy: -9.833972620571 gnorm: 0.000980209478 xtb: 6.5.0 (97a52f5)
C            1.03721016900110        0.17621742542427        0.27699245644127
C            0.23189531714953        1.16602354426330       -0.15064800764803
C           -1.21599330293488        1.16548693176749       -0.10695595954412
C           -1.93509825993893        0.10805592367049        0.43321710056842
C           -3.29715790534384        0.19008628617614        0.43396673265764
N           -3.95320045538374        1.22310123890811       -0.05526306073456
C           -3.17250941686418        2.16585399983553       -0.54006236290893
N           -1.85972572560301        2.22535695996348       -0.60568631494056
C            2.48563557546511        0.19411222592370        0.22493398628339
C            3.20659522548018       -0.89814734941719        0.72012807104968
C            4.57832385673204       -0.91470000719689        0.68992152348517
C            5.29651903034740        0.15879218999827        0.16399965455012
N            6.72550191020390        0.14127687609649        0.13360373925890
C            7.43541523523646       -1.10299409717889        0.02274700406758
C            8.59405261347292       -1.32557724565199        0.76295962694191
C            9.27619699062198       -2.51665951310339        0.65813411230261
C            8.81668179280635       -3.50623912128547       -0.18894134427220
C            7.67185702537991       -3.29853223276850       -0.93380288982119
C            6.98744239929534       -2.10854565107139       -0.83041072329574
C            7.47121318438426        1.36639751920011        0.21675103847893
C            8.61656509707113        1.55229359615056       -0.55345618194875
C            9.33840283045359        2.72133121142555       -0.46837424550886
C            8.93177089902938        3.72556318757306        0.38852480112484
C            7.79990639149758        3.55502385889858        1.16182058780806
C            7.07622723638578        2.38686757463645        1.07849751408480
C            4.58214931670577        1.24862831071352       -0.33312273123140
C            3.20992473797233        1.26799330660720       -0.30478525065473
H            0.59018551202280       -0.70757424053884        0.69231677769986
H            0.67600179414250        2.04849893876294       -0.57006807179198
H           -1.43885030470309       -0.75388081213177        0.84061417936997
H           -3.88506030521340       -0.61706249440593        0.84657964179182
H           -3.69057595095036        3.02442788474013       -0.94608864386752
H            2.66856675114622       -1.73447997314074        1.13245188562665
H            5.11898512459420       -1.75616385126422        1.08623953122520
H            8.94289742194984       -0.55280517901473        1.42539735313320
H           10.16957803494154       -2.67783771881289        1.23911909806230
H            9.35144836754266       -4.43834811105759       -0.27006590550647
H            7.31530499712802       -4.06892212976419       -1.59780595205930
H            6.10198954768520       -1.93592607956686       -1.41695784603332
H            8.92463403476074        0.76833290387155       -1.22294194220186
H           10.22181953875813        2.85339071774542       -1.07141357360559
H            9.49797805273247        4.64011386354806        0.45486624958234
H            7.48433053806358        4.33704391206727        1.83293946262092
H            6.20189330533520        2.24239853562593        1.68879007424041
H            5.12690702840509        2.07431877322279       -0.75619439164840
H            2.68806474303753        2.12056811055174       -0.70005680323047
