61
 energy: -12.730806677614 gnorm: 0.000784089262 xtb: 6.5.0 (97a52f5)
C            0.97687989300110       -0.35408944551930        0.11183556701964
C            2.44710855849190       -0.00586937557184        0.28334596367276
C            3.00706793862382        0.79023176863135       -0.89509499841648
C            4.47584567886905        1.15076909919145       -0.72983279748954
N            4.98253543905932        1.93537782486267       -1.86699471959931
C            5.67338388308957        1.37126425592319       -2.94161660213833
C            6.03701049331813       -0.05910383189995       -3.02539631488099
C            5.20582719262171       -0.96876438266337       -3.68175625881051
C            5.53211822681380       -2.30087751345773       -3.73479001868011
C            6.69927041165607       -2.76949393525917       -3.13580661527610
C            7.05242483830124       -4.18061676696997       -3.18044847984360
N            6.32694346140913       -5.13163233557903       -3.77757626720820
N            6.93742133728578       -6.26833233034907       -3.61841130802725
C            8.05671450971414       -6.05038482302319       -2.91927823233309
C            9.01063310385346       -7.07050453979092       -2.53816271023797
C           10.14734027344131       -6.84114228411424       -1.82353340500713
C           10.91366710897588       -8.01377088812347       -1.58168178670939
C           10.36564041936950       -9.13108215485181       -2.10805462950091
S            8.88262152119521       -8.76656266622612       -2.91942114026744
O            8.16734186443870       -4.72643760794728       -2.61926255633950
C            7.53096575449100       -1.86359807910584       -2.48339321852314
C            7.20665578805585       -0.53122093679801       -2.42701947344422
N            5.95303902609172        2.27765571924013       -3.87022206706786
C            5.43905364463560        3.44069842641427       -3.41975585863034
C            5.46978136116932        4.72740313400071       -4.06931537328212
C            6.09378459805579        4.88694466283673       -5.30793349037743
C            6.12756894525133        6.11182220904512       -5.91945611737709
C            5.53771207318567        7.20530549265321       -5.30384938976640
C            4.91775578872921        7.06800668648145       -4.08676746275277
C            4.86058890060446        5.82977710757117       -3.43181854091281
C            4.19677696490428        5.65159959488652       -2.13545081028085
C            3.56743879102740        6.72027749523869       -1.48237645980607
C            2.93951664866026        6.55293438234895       -0.27522815332541
C            2.91486390403248        5.30726621084183        0.32953211346436
C            3.52041910974854        4.23997604009992       -0.27787985103901
C            4.17004339565655        4.37899472066731       -1.50957386319011
C            4.81335243246966        3.26903414204831       -2.17539261470441
H            0.58820706585556       -0.92135624359324        0.96001064124844
H            0.81594200221689       -0.95324588745066       -0.78581458950462
H            0.36780134152146        0.54576882261597        0.01179553603150
H            3.03951928733880       -0.92041600485761        0.41660046893438
H            2.59387034233522        0.56553561420475        1.20908593538440
H            2.41735981350726        1.70166594197784       -1.04297529607555
H            2.87705013397502        0.22087189815901       -1.82264880793588
H            5.07720019667270        0.24090024728120       -0.64664757641875
H            4.65877740420003        1.69999472632880        0.19629698217306
H            4.30186244405943       -0.60960483031168       -4.14220311167228
H            4.88867969961132       -3.00043368102637       -4.23867559503137
H           10.43025901805621       -5.85792077937871       -1.48004357798022
H           11.84366017061724       -8.00754358878734       -1.03206441527550
H           10.78026695140671      -10.11916856678615       -2.04162278472189
H            8.43301443129497       -2.22768708336974       -2.02255165590265
H            7.85020390925211        0.16626317716708       -1.91940680237593
H            6.54807544473445        4.02950521524575       -5.77279890754464
H            6.61145226582536        6.22650878228287       -6.87552673971494
H            5.56723690356631        8.16870102892747       -5.78621163219483
H            4.47069682571042        7.93386464292340       -3.63445986115717
H            3.56946198960259        7.69629532189443       -1.93118483769222
H            2.46158150221416        7.39098817112939        0.20521925560687
H            2.41778494411908        5.17962828944998        1.27732028341517
H            3.48821263199672        3.28119971023782        0.20145502948876
