42
 energy: -8.700276324698 gnorm: 0.000782596852 xtb: 6.5.0 (97a52f5)
C            0.90786537167351       -0.23854194410109       -0.89632411821757
C            2.36143933159417        0.18125335885343       -0.74309069541929
C            3.26525329097122       -0.40711953619842       -1.82624201584186
C            4.71720089160210        0.02347645421993       -1.69658224420815
N            5.55226217638899       -0.54553289003445       -2.74461831766406
C            6.64664220359101       -1.38578992649248       -2.50487019494214
O            7.07318904079837       -1.75525042141155       -1.42968027854476
C            7.17810576652379       -1.73146864329974       -3.83517697850977
C            8.25568262188462       -2.51905410608138       -4.18516708149622
C            8.56618931357844       -2.69579451172990       -5.53719221880464
C            9.67147981061572       -3.49669942616433       -5.95812036045158
C            9.96184811079519       -3.66196217552461       -7.26747655188079
C            9.17373622410093       -3.04266013889885       -8.28725918826254
C            9.45256800317960       -3.20193878665344       -9.64484562031081
C            8.67013426251734       -2.59079696367333      -10.60247944471410
C            7.59447755305810       -1.80768139460421      -10.24001267292054
C            7.27197547893616       -1.61475446748097       -8.89609105966032
C            6.16458395221811       -0.80800494533255       -8.48552941602729
C            5.87401659248455       -0.63692856260843       -7.17755980717725
C            6.65878586602934       -1.25468252408302       -6.16338267466403
C            6.38993308683690       -1.10345533564676       -4.79784543130786
C            5.33776317212353       -0.34149503478113       -4.11424342725860
O            4.45981192635601        0.32054099642754       -4.63266700590795
C            7.76441353175696       -2.06330582155887       -6.52841345885742
C            8.07080051721370       -2.24049885858310       -7.90726685668429
H            0.27353420417692        0.19396102771710       -0.12026266601516
H            0.80280190460737       -1.32318019167875       -0.84056487756647
H            0.50714491231160        0.07541548009831       -1.86150316137128
H            2.73824425869625       -0.11623385123160        0.24386674493612
H            2.44118853235343        1.27592932913758       -0.76103583125990
H            2.89522567652449       -0.11909386956760       -2.81695608240098
H            3.20825918943124       -1.50128460708599       -1.80707515652503
H            5.12777007746489       -0.28078632553053       -0.72882270436763
H            4.80358945729010        1.11290027335337       -1.74670702351530
H            8.84696132062227       -2.98791531843172       -3.42058026777455
H           10.27698663525700       -3.97178024063051       -5.20594283386443
H           10.79973159720238       -4.26887092746574       -7.56316387154338
H           10.28982980438092       -3.81075521824598       -9.93906045080709
H            8.90208970308798       -2.72698637796619      -11.64589781671945
H            6.99080264871326       -1.33577166396330      -10.99567216592756
H            5.56184558664540       -0.33523842693614       -9.24123638361120
H            5.04039639440643       -0.02942348613115       -6.87211833192987
