100
 energy: -21.522366766681 gnorm: 0.000200570816 xtb: 6.5.0 (97a52f5)
C            1.85529540803663       -1.18312518476007       -0.65377249322837
C            3.27088717277334       -0.68651408539118       -0.40960706118149
C            3.51989760431162        0.70254902038191       -0.99755254928085
C            4.96522296277625        1.15004286246495       -0.85619002988826
N            5.22296537313896        2.44662069635588       -1.49777742201960
C            5.68556505116328        2.61767887379240       -2.81124130147616
C            6.03371540899215        1.69224622615712       -3.82955031626636
C            5.94957514746009        0.22637613932259       -3.62182596135121
C            7.04891022150788       -0.49059687904698       -3.14560147408717
C            6.94242416420802       -1.82911195486185       -2.86169617337453
C            5.73517637342933       -2.50500200124295       -3.03592360183344
N            5.60290532488061       -3.87524177560844       -2.64950890999777
C            6.42358959663407       -4.41539658657149       -1.60044979497315
C            6.70860143644581       -3.67313765216999       -0.45670858880912
C            7.49366550127664       -4.19939721266153        0.54421102838597
C            8.00517801843995       -5.47684788280192        0.42399421160618
C            7.72564618613056       -6.22820304184394       -0.70083045947609
C            6.94084321150459       -5.70428042788577       -1.70318990892553
C            4.59432323533078       -4.70961164296463       -3.24142590965563
C            4.34317750863770       -4.67108762632492       -4.61058005903160
C            3.36947442242826       -5.46921073463809       -5.16773590320583
C            2.63163497639736       -6.32176504206573       -4.36966553808985
C            2.87306381493974       -6.37554676953225       -3.01079375550606
C            3.84583823401004       -5.57848084224229       -2.45123349314729
C            4.65044318535034       -1.79832344035281       -3.55386527148335
C            4.75617296994632       -0.46192593428178       -3.84827582953966
C            6.46571778259066        2.20868271033669       -5.04228128547649
C            6.56304465085644        3.58656833746150       -5.28723989870425
C            7.00579500668959        4.05049764167593       -6.53750257075917
N            7.37259451119480        4.43266143566224       -7.57073566025497
C            6.21961325095797        4.48246441840809       -4.29120743504133
C            5.78389846823328        3.99773098997684       -3.05904421216467
C            5.35825717144690        4.68170666112240       -1.86693862653648
C            5.24494492969669        6.04220501095818       -1.58724619822515
C            4.77023878282255        6.43971672319836       -0.35146952145877
C            4.64218904728039        7.80514089795398       -0.04547447720977
N            4.53626990076987        8.93353759318257        0.20684077476974
C            4.40765153164991        5.46886766745910        0.59343594432136
C            4.51380705336143        4.10606567923014        0.35373137748836
C            4.06669940834457        3.14347673350459        1.38931905863151
C            4.98124446103954        2.41437526567511        2.15190603167344
C            4.54950897527974        1.52268239869504        3.10288405176911
C            3.18934259397148        1.34076505522442        3.35171915404807
N            2.73823392605078        0.41124180336789        4.34122290897847
C            3.57598589011125        0.06373574551957        5.45559845172879
C            4.32389564252045        1.03142441911540        6.12176783172154
C            5.11911096323258        0.68953357466414        7.19238170101983
C            5.17953371851481       -0.62264755931627        7.61972106659998
C            4.43924213327372       -1.59288587942392        6.97298657414116
C            3.64391051798567       -1.25379157743334        5.90188459644173
C            1.43698641902979       -0.19015936372909        4.23917393564065
C            0.93803890018206       -0.61289291046766        3.01021305129417
C           -0.30926870131335       -1.18748327096356        2.91644083564047
C           -1.08086368688522       -1.35442973709694        4.04972003755272
C           -0.59817536706556       -0.94634365507038        5.27788893196315
C            0.64897573523780       -0.37096558704124        5.37316194118807
C            2.27799648908499        2.09302002109646        2.61214022908029
C            2.70591284188753        2.97447157341002        1.65140142156880
C            5.00848513074682        3.70499449600853       -0.91566298783299
H            1.68163743532924       -2.16322929044890       -0.20475585114000
H            1.64792417807707       -1.27037143724758       -1.72157160936871
H            1.11778872943610       -0.49337599848498       -0.24061781099661
H            3.99358266841926       -1.39418511093624       -0.83584921838946
H            3.49305649416913       -0.66972118901404        0.66519994242819
H            2.85692417599701        1.43566391578443       -0.52505174043385
H            3.23874981066589        0.71412312344625       -2.05596310829484
H            5.63843897321739        0.40739013445715       -1.28794563515963
H            5.25048729976266        1.20964718174654        0.19446949279437
H            7.97715284126111        0.02907767420043       -2.98179439388553
H            7.79357784111007       -2.37229170265973       -2.49064525200157
H            6.29868596958449       -2.68287069982055       -0.36302567007250
H            7.70911053248530       -3.61387555203058        1.42294679250487
H            8.62127479859229       -5.88722212383223        1.20719843742852
H            8.12345398687317       -7.22539179906050       -0.79468801670514
H            6.72292412308564       -6.28172992651907       -2.58449757427626
H            4.92908997075072       -4.01334926982644       -5.22840003029175
H            3.18313820554409       -5.42928513143486       -6.22842310859789
H            1.86915502490234       -6.94529747641816       -4.80692111333558
H            2.29878036776399       -7.04127872090961       -2.38754486660007
H            4.03441668541356       -5.60961166513978       -1.39242890012747
H            3.71346737832746       -2.30824417739980       -3.69044243591560
H            3.91058945241641        0.07824459795216       -4.23768696624880
H            6.73597321759480        1.52550295586131       -5.82722743821610
H            6.28655697040318        5.54060336975442       -4.46501960853450
H            5.51796192553295        6.77295582366414       -2.32606126989735
H            4.02835736466105        5.79615666347280        1.54484068490267
H            6.03395576956432        2.55822682294314        1.97901177569133
H            5.26237301259982        0.94288535091062        3.66193720315583
H            4.26171654304768        2.05415619592965        5.79351213703294
H            5.69381115080192        1.44731890171711        7.69919878130552
H            5.80233581747976       -0.88899951072942        8.45789087506173
H            4.48420048512042       -2.61655565045456        7.30698005512491
H            3.06824554880498       -2.00505529448926        5.39018776679176
H            1.54902330845427       -0.48880077168888        2.13462345062184
H           -0.68401328388582       -1.50768884574717        1.95813144193297
H           -2.05792739026785       -1.80306675624747        3.97587721224617
H           -1.19932965871338       -1.07717641861834        6.16272865069635
H            1.02821744156129       -0.04553324217640        6.32594369644462
H            1.22708914703725        1.98169004731244        2.81260710457677
H            1.99315509831644        3.54770058846172        1.08394564998805
