102
 energy: -21.244434440964 gnorm: 0.000429236252 xtb: 6.5.0 (97a52f5)
C            1.08127614699872        0.97196079126920        3.89334759270368
C            1.91896010204678        0.29077244423167        2.82250030910813
C            2.85003444722101       -0.77845995037080        3.39359338787738
C            3.69256649033339       -1.46965086289149        2.33289621209854
N            4.57131936964570       -2.49109109431131        2.91992490714323
C            4.20867081737627       -3.81263705665659        3.17748589768918
C            3.04756872910825       -4.52784005855947        2.86549589591830
C            2.99669878153881       -5.86506958252555        3.15128864531664
C            4.08914292009109       -6.54599306877982        3.74049009255850
C            3.99096419815143       -7.97692231352202        4.09572479965699
C            5.14629558539499       -8.78957675329202        4.18943912377263
C            5.07666580723707      -10.10489676595267        4.56184201370954
C            3.82908002127392      -10.65638048802075        4.87463401618115
C            2.66659635441793       -9.86404358937478        4.81226538377699
C            2.75877151862852       -8.53614306613643        4.38869421873740
C            1.54082609787982      -10.71421979553876        5.12932585110234
C            0.12040633142652      -10.49201556594841        5.13704929105581
C           -0.69618226927439      -11.64340500227519        4.97899217594011
C           -2.06023709512507      -11.47858295695847        4.63011164530618
C           -2.59107990319400      -10.24322177986808        4.45011171006745
C           -1.84008284858218       -9.07449625439130        4.73652251621771
C           -2.42059480129647       -7.78268507866686        4.58285972230869
C           -1.76678745047071       -6.66871160673906        4.98406471078184
C           -0.51979416803093       -6.76171101292730        5.66560826193408
C            0.09305658435634       -5.62349675586192        6.22440533361917
C            1.21001659170435       -5.74162770224372        7.00240277473815
C            1.74111321239700       -7.00089001003382        7.27263974564126
C            1.18044084565632       -8.11863298162685        6.72208055213124
C            0.07603372115089       -8.03180740631621        5.85190222877410
C           -0.51965233929581       -9.19526340621738        5.21933559372295
C           -0.13517197662659      -12.94675089955059        5.10909430800334
C            1.19993623688650      -13.13552187393274        5.28290307735244
C            2.05555337570933      -12.01616268445405        5.25249050189296
N            3.45045960883031      -11.96640546832531        5.17305106395651
C            4.33817440704551      -13.13489320166949        5.10879981092419
C            4.47763442097370      -13.66765897335367        3.69143102759595
C            5.39141637289920      -14.88958286774397        3.59721199738467
C            5.52348324629677      -15.41748905855139        2.17736999703859
C            5.23958788837524       -5.83243898795659        4.03229542806626
C            5.29950471481856       -4.45732113695125        3.79177363968933
C            6.33722104541351       -3.46859832820773        3.98515898738757
C            7.67432846348389       -3.53724073126070        4.50867380276407
C            8.56007723335704       -2.50066261713720        4.10983534808971
C            9.95551867938803       -2.68286745460829        4.28187395406309
C           10.44971967381182       -3.82355231706850        4.82556967193467
C            9.58632352009429       -4.80932311022049        5.36899356028323
C           10.11447011860496       -5.98125209765294        5.98330131034739
C            9.31136153703176       -6.85249128222324        6.63591861306088
C            7.92692098120353       -6.57129628822813        6.81785184194071
C            7.11693788934630       -7.38523662609067        7.63320178487155
C            5.83153007674159       -7.02440004591968        7.92414818399495
C            5.31560738179686       -5.82664676293404        7.43417872524329
C            6.07207553029616       -5.03118174551717        6.62078913301834
C            7.37332357509684       -5.40728481504525        6.23377503567032
C            8.19051529151694       -4.60289043376214        5.34309092713648
C            8.05306755457729       -1.31976040591812        3.49447790174666
C            6.73879623241798       -1.19230337309092        3.17051946958806
C            5.87925558031223       -2.29114674068409        3.36997082286712
H            0.42138425399110        1.73526587603863        3.47496272619604
H            1.71341263326841        1.45729843088702        4.63928335879792
H            0.45577424281156        0.25080505505824        4.42276615201940
H            2.51382356635899        1.03507163488240        2.27660631542947
H            1.26738508004391       -0.16353422280920        2.06429616997654
H            2.26475996087842       -1.52913318340994        3.93811224451971
H            3.51009300999118       -0.33345399344499        4.14776105566881
H            4.30506344092145       -0.74379901436145        1.79118853625787
H            3.05544924310309       -1.94520059286973        1.58189711281974
H            2.21757167522807       -4.02473332520669        2.40229771029548
H            2.10970956187277       -6.42098564444661        2.90359731249414
H            6.10220412798933       -8.36427022148067        3.93928847040564
H            5.95859727902592      -10.71867846278399        4.60734770176151
H            1.86888716766549       -7.94225345733748        4.31972680817667
H           -2.65934867072060      -12.35593365344372        4.45601445526649
H           -3.61437013274684      -10.13500915762703        4.13361285517021
H           -3.39620872992163       -7.70582908864196        4.13399281457731
H           -2.21450881811118       -5.69853527632037        4.85351787641646
H           -0.34563739051917       -4.65606547678648        6.04900648683109
H            1.66735253979800       -4.86333722526899        7.42810229544318
H            2.60028925404461       -7.09431356193714        7.91571565824793
H            1.58984701318211       -9.08662855897934        6.94954709806902
H           -0.79392792659361      -13.79655661205179        5.05502065022868
H            1.61664189396255      -14.12335748252643        5.36668048867629
H            3.94675774307633      -13.90794717630973        5.77604157134021
H            5.31447836982759      -12.85415987265809        5.51395449150633
H            4.85237348718285      -12.87069568833844        3.03823043162905
H            3.48509478198217      -13.91364304613448        3.29571870527583
H            5.01083574928852      -15.67806994612624        4.26006921315282
H            6.38069628312537      -14.63391556194625        3.99947157818892
H            4.55245986468445      -15.70956266230193        1.77327769562522
H            6.17808631571123      -16.29027988531833        2.12307203428363
H            5.93377521733042      -14.65709340581964        1.51031915336589
H            6.07836463242024       -6.32637408218537        4.48170172045601
H           10.62473486930593       -1.91977099690186        3.92292385003052
H           11.51354504769002       -3.97039544718990        4.90085245831137
H           11.17312472342285       -6.16579280801930        5.91705666083026
H            9.72360855615834       -7.73786574706200        7.08857867197123
H            7.53321827785435       -8.28817644473192        8.04617490546009
H            5.22289224733028       -7.65362609140511        8.55293690813435
H            4.31350270511833       -5.52796496207019        7.69277092291181
H            5.66930495864477       -4.10151517011047        6.26007435940222
H            8.73912594048427       -0.51886006309744        3.27773310235880
H            6.36531349507546       -0.29984466869289        2.70119467655131
