58
 energy: -12.471029353242 gnorm: 0.000451258383 xtb: 6.5.0 (97a52f5)
Br          -1.49899651871896        0.05468569293122       -0.05605246438685
C            0.38974610944570        0.02858920353197       -0.01834952324692
C            1.10633781247804        0.99495532820392       -0.69294320611952
C            2.48558509906030        0.97819582704041       -0.66725495381502
C            3.16923435927176       -0.00997614090679        0.03708672056001
N            4.60534064613750       -0.02986930117171        0.06611408857871
C            5.33213301105008        1.19923596206778        0.16465289811171
C            6.55068966818809        1.36356601770859       -0.49257806645086
C            7.24690861432038        2.54196704489287       -0.39954121822680
C            6.75935030870403        3.61132370483831        0.35886805094467
C            7.52667440136348        4.83858992862218        0.43659144522358
C            7.20825769230563        5.90781754988360        1.18806866011061
C            7.96429587570041        7.14018860163058        1.27607750948538
C            9.10424264820432        7.36191123638315        0.51637075075792
C            9.75283650526225        8.55327471256567        0.66189118737550
N            9.34434951720846        9.49371171608867        1.48948212152709
C            8.25569144236881        9.17763987508146        2.15801287969433
N            7.53099984556694        8.08057723411261        2.11988077445016
C            5.53428117150100        3.44346421213968        1.01351963597413
C            4.83768264373281        2.26493932398456        0.91557769066675
C            5.30132978696305       -1.27845712813820       -0.00765046527200
C            6.48817253524373       -1.47733700426155        0.69642118945713
C            7.15479487454500       -2.67437970921598        0.62773990262283
C            6.66818326296682       -3.72854538833372       -0.15223441551159
C            7.40384915058347       -4.97644298691826       -0.20329956942708
C            7.09078634314349       -6.03195497791108       -0.97615369224430
C            7.81543387447434       -7.28463231972120       -1.03772570093375
C            8.90798160793610       -7.54513558951192       -0.22268455860307
C            9.53038376505342       -8.75272389902505       -0.34734016401464
N            9.13994488118722       -9.67352505938468       -1.20514432652938
C            8.09479866051966       -9.32209511739999       -1.92358904312449
N            7.39884873125052       -8.20598734282590       -1.91046215571718
C            5.47498551199628       -3.52589500497873       -0.85417748059433
C            4.80762878394380       -2.32883901264460       -0.78035727741950
C            2.43098299125542       -0.97843355481458        0.71308809606640
C            1.05186664795223       -0.95686903476067        0.68376108285205
H            0.57519629499399        1.75786206510735       -1.23842663120119
H            3.04949919601716        1.72378996291635       -1.19954644021311
H            6.93173368441744        0.55302599265348       -1.08862863439960
H            8.18528124512703        2.65243770629176       -0.91528072081257
H            8.42325654841130        4.87314829381127       -0.15379999671618
H            6.32521843346812        5.86902446448279        1.79688428362400
H            9.46667018280487        6.62232420109892       -0.17398076989944
H           10.64179433736265        8.75874295490047        0.08306432610011
H            7.90264901291308        9.93574135646753        2.84437015234425
H            5.12668980962234        4.24722780617512        1.59940652323695
H            3.90201256126798        2.14254861597546        1.43236137114062
H            6.86761268438472       -0.67846745457466        1.30902626383877
H            8.06885838511598       -2.81152488025060        1.17947096504109
H            8.27202213020849       -5.03898391661025        0.42606005383352
H            6.23912132670984       -5.96427578736105       -1.62581691732362
H            9.25251060777042       -6.82346377062328        0.49523777416000
H           10.38234781616277       -8.98827917857014        0.27408239732624
H            7.75473809000604      -10.06530133085854       -2.63245094357595
H            5.06893612105418       -4.31727766357834       -1.45770146642781
H            3.89658790436120       -2.17994210107756       -1.33292833925462
H            2.95240763724545       -1.73903835286967        1.26707782675491
H            0.47845372841054       -1.70452358328638        1.20709251960552
