39
 energy: -7.430479687781 gnorm: 0.000958266468 xtb: 6.5.0 (97a52f5)
C            1.16826163998885        0.04596058922425        0.15800797567258
C            0.37313707498290        1.12644388593534        0.26869002168080
C           -1.07483631847072        1.11568110077363        0.31536824355068
C           -1.80124867027882       -0.06719208817474        0.34230914799288
C           -3.16270433669908        0.01462767727897        0.38286556757096
N           -3.81234555992918        1.16169380674921        0.39642591585747
C           -3.02478146312928        2.21681731242722        0.37184825524553
N           -1.71161144441148        2.29097467373551        0.33457556467009
C            2.61590344652501        0.07480966026255        0.10777560256300
C            3.32255097528460       -1.10971738421701       -0.12767923402806
C            4.69269463043354       -1.12085401029650       -0.18721963473601
C            5.43404368080228        0.05326954903301       -0.00733454697245
N            6.84552576419948        0.04840787517613       -0.06294700201885
C            7.61245511303230       -1.06219820550327       -0.66706478608344
C            8.24688723587118       -1.93626336334622        0.41912815000327
C            9.13033608200898       -1.08145898763151        1.34467067113632
C            8.33919982869410        0.10782080880288        1.91901537746337
C            7.67533051879834        0.92257852454065        0.80083048553080
C            4.72658880478924        1.23762829297463        0.23305800342095
C            3.35578021233788        1.24894300974474        0.28779289916158
H            0.71127599127851       -0.92345332432332        0.08330968254514
H            0.82547221892121        2.09901381642933        0.30945330171218
H           -1.30915624654375       -1.02314278187425        0.33889538539492
H           -3.75657779779196       -0.88796600193469        0.40568376667490
H           -3.53668512611118        3.17019318896894        0.38219758085797
H            2.77281670960870       -2.02559307238159       -0.26240028010569
H            5.20751634166609       -2.05188979166228       -0.34217672392559
H            8.39095626049244       -0.62311658288695       -1.29928487321104
H            6.97159950713131       -1.63681157771999       -1.34286662065237
H            8.82154437254907       -2.76004752151683       -0.02647358398384
H            7.45390776238867       -2.41031081212399        1.00976275212418
H            9.99277686363691       -0.70626470387194        0.78039972989623
H            9.55237905998424       -1.69440471725143        2.15327158379603
H            8.98755427467661        0.74791304631884        2.53314202657275
H            7.56363843125418       -0.26708086340185        2.59798513033173
H            8.43163818611379        1.40370494811132        0.17296721433883
H            7.06166449163429        1.72704943955229        1.21578903099637
H            5.26851663934701        2.16018884818944        0.33941255713066
H            2.84466484493440        2.17624573588849        0.47427566182134
