68
 energy: -14.562094201911 gnorm: 0.000660107255 xtb: 6.5.0 (97a52f5)
C            2.96425556422747       -1.47629660489168       -0.61873461342299
C            4.15002316411923       -0.55130525321508       -0.39703606222114
C            4.26093173890402       -0.06323194327960        1.04793667008288
C            5.39867356640566        0.92471938905805        1.25472251585997
N            5.38085875395534        1.52113891920985        2.59694651331606
C            6.00296210408265        0.95420581988113        3.71599905204444
C            6.73839484112014       -0.22386997506831        3.86935614699871
C            7.23074040207055       -0.53672909074966        5.10934317524223
C            7.01331489619742        0.29722017873972        6.22494180085119
C            7.53024083917758       -0.05544359428188        7.48247138180521
N            7.95534582779924       -0.34582958071816        8.52318538201701
C            6.28553962278269        1.46322307682341        6.07663223790168
C            5.77862936374790        1.79431385633235        4.82019838989808
C            4.98618601781649        2.90453114208372        4.35638995256959
C            4.47880633856194        4.01715588135477        5.02490699894779
C            3.71860626474707        4.93691877730553        4.32570248399121
C            3.19707032922451        6.06689917735918        4.97769426216328
N            2.76660800563942        7.00096473945917        5.51635287660419
C            3.46219127874424        4.73170810112303        2.96158366147781
C            3.94885047934204        3.63613018502675        2.26397985673325
C            3.60533281564559        3.43819030472239        0.83473536364191
C            2.46286600708316        2.72185173915282        0.47448704129914
C            2.16415720161922        2.49297770717922       -0.84488073717740
C            2.98601767964568        2.98078712769625       -1.85961331576149
N            2.68242442047915        2.71956661425705       -3.23229927531034
C            1.32521091068332        2.48863656184343       -3.64364195619192
C            0.28341661217382        3.26524130166372       -3.14290238418675
C           -1.01536275711533        3.03261476376047       -3.53530733442680
C           -1.29737134244175        2.02407741977068       -4.43569975070254
C           -0.27427030797270        1.24920468903675       -4.94588944911598
C            1.02531707113899        1.47977482553802       -4.55534866795304
C            3.72761115587493        2.65700814663183       -4.21563939096241
C            4.94783146819870        2.04871635458384       -3.93201198643799
C            5.93924312101983        1.98644722149492       -4.88502218832336
C            5.73075888014932        2.52827521560883       -6.13831728803489
C            4.52454573793478        3.13126117177014       -6.43631736201855
C            3.53127504764157        3.19385352027069       -5.48554211418832
C            4.11129474068917        3.72190758429162       -1.50069675077001
C            4.41644445982389        3.94721737993551       -0.18115375490549
C            4.74025274954871        2.70559409584474        2.98413687033280
H            2.89550567352164       -1.81170621350624       -1.65555160718658
H            2.02511452806582       -0.97843078522634       -0.37219697069357
H            3.03350363651124       -2.36418487043091        0.01154501223500
H            4.07597054054337        0.31664681552400       -1.06468093955322
H            5.08342355549590       -1.05243962807188       -0.68418348847130
H            4.38204487358358       -0.91509287572029        1.72702948471115
H            3.31875322032227        0.40528536731817        1.35211784544688
H            5.34882173167265        1.72919902767143        0.51818951654802
H            6.36664358136504        0.44080637020160        1.09748604723030
H            6.90445916842300       -0.86746371898182        3.02429432417639
H            7.79815435256508       -1.44072772051624        5.24952754040073
H            6.10914168658338        2.10574566748933        6.91950539901084
H            4.67559143603648        4.15763991998729        6.07181290414069
H            2.85716347597825        5.44975770916155        2.43788730272986
H            1.82239396222726        2.34087160127592        1.25103754189552
H            1.29665685818814        1.91519956132924       -1.11017879289523
H            0.51098323377783        4.05651111014306       -2.45034573685887
H           -1.81336642254836        3.63912028558416       -3.13943970167936
H           -2.31471840849849        1.84173099071936       -4.74067907745180
H           -0.49366177941239        0.46281286090116       -5.64922762437943
H            1.82639416555551        0.87508419758928       -4.94274145554334
H            5.10213619624273        1.61926029431255       -2.95805998748695
H            6.87931997961749        1.51305330015546       -4.65355212673933
H            6.50799172633149        2.47996999260216       -6.88320899397773
H            4.36096470145508        3.55369085600120       -7.41421477273204
H            2.59084726294570        3.66651588007588       -5.70852509887323
H            4.73876386181110        4.12289306045482       -2.27686402755226
H            5.29273813114147        4.51163399732070        0.08685923188357
