58
 energy: -11.914840219969 gnorm: 0.000998318278 xtb: 6.5.0 (97a52f5)
C            1.36090983859551        0.77050699559882        0.37468338392183
C            2.78080774048194        0.34703526734486        0.03277235791149
C            3.25211326290944       -0.85599510273775        0.84981140225167
C            4.66755884354154       -1.29380170608287        0.50737773543477
N            5.09215753963552       -2.45274755848612        1.30507421125674
C            5.65234735443942       -2.40072134592590        2.58093439876788
C            5.95811619964788       -1.27387016623344        3.36308359583236
C            6.37047725544023       -1.45872124957422        4.64347616572357
C            6.55581142940696       -2.75886008242433        5.18853915055254
C            6.94055273077760       -2.89465032638691        6.55233324432839
C            7.15782359595018       -4.10781896509762        7.10411422334155
C            7.07668773703704       -5.29197061682091        6.31899010669851
C            7.40318325167386       -6.54361402581149        6.87478062038893
C            7.43629912747687       -7.66626684291700        6.09821439890012
C            7.16766579560772       -7.57512093166732        4.73534149862713
C            6.83235672851195       -6.37284296026235        4.17712649055206
C            6.72478483395765       -5.20276790315566        4.95037345653901
C            6.35185756829705       -3.91355625190168        4.39526082979557
C            5.79595358489466       -3.70927539711946        3.08549960744735
C            5.19337912673653       -4.57645464082602        2.09959248114857
C            4.87063921905815       -5.91862520873105        2.09162907560524
C            4.21653575314912       -6.50160902592495        1.04103752772548
C            3.93087578422819       -7.90200527156485        1.09461480502957
C            3.29277309755437       -8.62453686495961        0.14221889134783
C            3.02528240401603      -10.02674218693546        0.24130104301036
C            2.34968256596656      -10.70402564997340       -0.79404103591193
C            2.09641835216712      -12.04530456306699       -0.69495636833065
C            2.50838647241778      -12.75095233748526        0.43601734510464
C            3.16434318100171      -12.09471086709102        1.44178752917641
C            3.41131915376875      -10.75876570024620        1.33357037609563
C            3.83891747401129       -5.68265346019561       -0.06301762671797
C            4.10822555096550       -4.34734120029659       -0.07767064265083
C            4.78514473054595       -3.77822636977523        1.01827605305882
H            1.03636383787111        1.63128897885036       -0.21425952212217
H            1.27294464298110        1.04084347889613        1.42846523859778
H            0.65259771029162       -0.03926173644550        0.19042577952936
H            3.47353882523209        1.18462798319821        0.18862636384945
H            2.85768936567672        0.11069054028961       -1.03681234985113
H            2.56561451961852       -1.69805625332184        0.70206073661944
H            3.19110443481611       -0.62633414488233        1.92017815818569
H            5.37610424900557       -0.47704973032413        0.67077317251531
H            4.74664485869524       -1.55197050806318       -0.55244697534141
H            5.81858192284781       -0.28733135241590        2.95845271907488
H            6.57035785331741       -0.60600082119851        5.26953747596648
H            7.04338666035630       -2.00468823134226        7.14931372599784
H            7.43748554255172       -4.19152109384254        8.14029586286951
H            7.64639952182568       -6.60180137711204        7.92200546439799
H            7.69259223650638       -8.61849160631023        6.53332305821347
H            7.23386978189222       -8.45599257444651        4.11750242689997
H            6.70873645111539       -6.30683737706070        3.11370617811292
H            4.25377076995487       -8.42087441094697        1.97983302947447
H            2.95869014358486       -8.12937860104558       -0.75036639846915
H            2.03321770585603      -10.15296087269398       -1.66324427920390
H            1.57805374206918      -12.55904702508328       -1.48809902454162
H            2.31007025911903      -13.80757965056795        0.51518994775902
H            3.49103509409533      -12.62181885108943        2.32248396277841
H            3.32375949333745       -6.12557399800788       -0.89612206194340
H            3.80528309352720       -3.72467824833386       -0.90038902134843
