60
 energy: -12.775412728004 gnorm: 0.000700090974 xtb: 6.5.0 (97a52f5)
C            1.02932663424345       -0.63872852477733       -0.19281584200697
C            2.50594234788349       -0.28604102808649       -0.10528166411624
C            2.99874718316006        0.49924856188608       -1.32070234826058
C            4.47195296786663        0.86725322215804       -1.23913171185562
N            4.91232148056814        1.62372650769330       -2.41853789597633
C            5.36507516459003        1.06152876913584       -3.62150635375967
C            5.62673460928677       -0.26242992263375       -3.98339892925563
C            6.06429974772234       -0.52313620477891       -5.25817166891133
C            6.24556162530512        0.50838936507475       -6.18587059929048
C            5.98772960609803        1.81540975517549       -5.84986432036636
C            5.54244143482003        2.09844296574331       -4.55720676599876
C            5.16532573736086        3.33081530493800       -3.90584994678462
C            5.12085491571285        4.65126106052894       -4.35066268692747
C            4.68180466156726        5.64337365705403       -3.48941974103936
C            4.63166349466060        6.98285342300868       -3.91922210054507
C            4.58850998191556        8.14532732307783       -4.29734555997354
C            4.53496779737690        9.47698179401212       -4.74251929092898
C            4.79757670700072       10.51166705808984       -3.84656917799511
C            4.75582640923886       11.83094689284016       -4.23404847498190
C            4.44515811255491       12.18094280558966       -5.55046931307695
C            4.39103507608842       13.54174873694897       -5.98433013526210
C            4.08820514419186       13.85893048720753       -7.26363944958914
C            3.81162662626732       12.84393380793976       -8.23228205462416
C            3.49873714057306       13.14452443459452       -9.55961872843054
C            3.23805317620437       12.13954776749144      -10.46844262570112
C            3.28006531181703       10.81444605617722      -10.08609932977535
C            3.58778824853718       10.45990768122723       -8.77083766905877
C            3.64064517839142        9.09861574686225       -8.33745219147119
C            3.94106923065338        8.78269232661229       -7.05748265825222
C            4.21908649773858        9.79148414691072       -6.08264120950992
C            4.17494709007404       11.15078365714051       -6.48295631342656
C            3.85710572191437       11.48554075073370       -7.83210614503436
C            4.28356000470069        5.30025584022640       -2.17937472020794
C            4.32142488553873        4.00658401411723       -1.72801593077214
C            4.77065933951395        3.00514136513272       -2.59372379936428
H            0.68886478640134       -1.19981563902985        0.68026104122514
H            0.82014126190528       -1.24588052235185       -1.07547895003080
H            0.41311186450582        0.25919410821516       -0.26706342236464
H            3.10718662916298       -1.19826361888289        0.00490101349100
H            2.70249829329063        0.29522513274937        0.80533236332396
H            2.40283412159618        1.41177343473912       -1.44054079398263
H            2.81848808014976       -0.07819408616507       -2.23508732252964
H            5.09068061506940       -0.02967817121075       -1.14649312993613
H            4.67216803333321        1.46539956749004       -0.34574465265328
H            5.48334032244245       -1.05299494705638       -3.26866601814785
H            6.27170365527476       -1.53939727774735       -5.55102509223114
H            6.58992430637261        0.27312706992658       -7.17961728881661
H            6.11845643852614        2.61359892201510       -6.55915146433821
H            5.42235459189527        4.89480565218779       -5.35290825165551
H            5.03840701710210       10.25999353975872       -2.82760991366151
H            4.96344688349613       12.60997635443483       -3.52087532861798
H            4.59671196483279       14.31845479196100       -5.26808462208830
H            4.05121762154496       14.88939851124620       -7.57230157375302
H            3.46310185318749       14.17523948685826       -9.86800516229412
H            2.99852384440752       12.39248412961447      -11.48846437121267
H            3.07477326142278       10.03803165022755      -10.80285016110837
H            3.43541010899787        8.32179641805382       -9.05365030789298
H            3.97553217920608        7.75164816676116       -6.75188422896996
H            3.94221703088292        6.08578601165413       -1.52702697631988
H            4.01417594371352        3.75450170965528       -0.72882803294899
