62
 energy: -13.392065464126 gnorm: 0.000367948451 xtb: 6.5.0 (97a52f5)
C            0.95436842810707       -0.04840161846294        0.12603471369078
C            0.17037355460429        0.99956715068355       -0.18486609280477
C           -1.27949744492212        1.00619735814776       -0.20422310212147
C           -2.01452786817132       -0.11023098563119        0.24956553971149
N           -3.30605609679858       -0.20559342230556        0.26419926059875
C           -3.94098405810647        0.89391433455688       -0.21015173145551
C           -5.34931699087617        0.91487231952869       -0.25599602472949
C           -6.02722977057738        2.00102490901359       -0.72830196679075
C           -5.32917513588728        3.12133172057894       -1.17720983417391
C           -3.96579813554103        3.13733772457552       -1.14582319202690
C           -3.22953768456307        2.03340763583967       -0.66533557177868
N           -1.87945396880904        2.09146502165153       -0.65744189984834
C            2.40512839757793       -0.03201433675082        0.14009245253517
C            3.10555482304058       -1.22542799616833        0.33592522571932
C            4.47877405595711       -1.24794087460488        0.35682335646593
C            5.22027859977067       -0.07678444490661        0.18876422417600
C            6.69665563642468       -0.09915359553500        0.21905239740040
C            7.41135991742898       -1.18254642763776       -0.29864984907922
C            8.78380052779264       -1.20240118275546       -0.27082705006024
C            9.50452851977080       -0.14230085830084        0.27793076827071
N           10.93528092612209       -0.16093523220245        0.30087506478159
C           11.66516082934560       -0.78317265901575       -0.76799949496625
C           12.83561398500449       -1.49370697752838       -0.51253431209900
C           13.53328976340093       -2.09112518891673       -1.53804840475586
C           13.07660190272613       -1.98986171777321       -2.83774856629570
C           11.91907873947227       -1.28643239388483       -3.10825899161965
C           11.22005199453322       -0.68779200311753       -2.08453962308442
C           11.64858749100580        0.44892041418387        1.38803296483437
C           12.83737039604113        1.13876451186359        1.16202506260690
C           13.51935618684163        1.72446737896297        2.20467332061093
C           13.02847208804439        1.63182141863933        3.49248891178366
C           11.85224635938655        0.94903356362025        3.73383855736884
C           11.16860071183465        0.36237329600844        2.69284960077459
C            8.79446262068257        0.93886624758622        0.79864614440134
C            7.42207392713838        0.96126172264084        0.76853568015361
C            4.52115017974827        1.11682635922853       -0.00318930943691
C            3.14744249870537        1.14036414538405       -0.02815994988521
H            0.49238454210005       -0.98731037455861        0.36802615960494
H            0.63507440913655        1.92381943835841       -0.47153553374563
H           -1.47730236403180       -0.96233587915418        0.62934244563279
H           -5.88306345620476        0.04809917929404        0.09204795226446
H           -7.10455223342402        1.99523700243879       -0.75562168480414
H           -5.87068218272540        3.97535317643591       -1.54986902224241
H           -3.42352581456402        3.99940632435292       -1.49219468921448
H            2.55181646131366       -2.13881599210073        0.47080039614488
H            4.99656424202494       -2.17643738044436        0.52379832046775
H            6.87274592130245       -2.00308896985615       -0.73962301225632
H            9.32247659452890       -2.04557260084349       -0.66625566060207
H           13.18226289899504       -1.57632235600816        0.50265594507085
H           14.43644888666448       -2.63976619937501       -1.32636435091270
H           13.62302072294368       -2.45863479558861       -3.63971417588131
H           11.56288690606790       -1.20513312120362       -4.12221029170781
H           10.32306066175795       -0.13052291549467       -2.29073515132188
H           13.21082942997419        1.21466717917493        0.15585842099679
H           14.43681333317914        2.25741147519759        2.01553632674355
H           13.56273577345574        2.09153332560998        4.30779184834241
H           11.46996576254976        0.87402205680066        4.73873837957916
H           10.25735405129270       -0.17945115840421        2.87641799950772
H            9.34191833988633        1.76544529553351        1.21636258305119
H            6.89107335329780        1.79770339990155        1.18833313442327
H            5.07411162332528        2.02840838304596       -0.14967869185162
H            2.63965623090058        2.07727018969665       -0.17029592616076
