69
 energy: -13.368880764994 gnorm: 0.000562372279 xtb: 6.5.0 (97a52f5)
C            1.65828401589525       -2.92778880024395        1.06740536016005
C            3.02153101050744       -3.27932598608934        1.64211818937830
C            4.06082332091671       -3.56695403046095        0.55874884352635
C            5.41723885524968       -3.97298587885570        1.11769365329991
N            6.40124535261518       -4.24280403439105        0.05397287372123
C            7.48957290197398       -3.38758528146202       -0.18141959687913
C            8.11628665984848       -2.43921043424601        0.63518165638570
C            9.15324160600973       -1.70388650481500        0.12104204352704
C            9.58385687135951       -1.88428311611658       -1.19846577627536
C            8.97968235907833       -2.80353994264224       -2.01701017891321
C            7.92376484497851       -3.56582798804578       -1.50606462192208
C            7.07005437248273       -4.55103245197081       -2.10389962032387
C            6.99334726761401       -4.98911151275835       -3.44615600250559
C            6.01751047810237       -5.86735139739837       -3.81009999924741
C            5.12152137979180       -6.35575318034001       -2.83174481326777
C            4.06985419308051       -7.32505271363694       -2.94774859526857
C            3.54761954709575       -8.01001030508234       -4.04514311927713
C            2.52256675220203       -8.92275206925956       -3.85560363571341
C            1.93098131518246       -9.63706949999993       -5.00784052149236
C            0.55582731462168       -9.85061728273089       -5.08699109724049
C            0.00474330460485      -10.50248648595071       -6.16713336114498
C            0.80737776671547      -10.95270658604373       -7.19551107678579
C            0.19433505715251      -11.69407769378681       -8.38318608551563
F            0.17730698508823      -13.01003205796150       -8.09644332540287
F           -1.06006055018459      -11.24251031547786       -8.57999963558432
F            0.94657669569419      -11.46397079558098       -9.47724261719759
C            2.17173766155890      -10.75640720904745       -7.12700041681028
C            2.72970708203712      -10.10504954920013       -6.04984938115135
C            2.04038720139208       -9.15175731823237       -2.54578293067707
C            2.54906487872834       -8.49158315418643       -1.46019391435586
C            3.57303322464813       -7.55648973165257       -1.65354619891532
N            4.27716438769133       -6.74790943000528       -0.75107529395097
C            4.34260847262172       -7.05692074864532        0.68837135241397
C            5.74102550573560       -7.46177341230741        1.13194939324760
C            5.82837376361225       -7.79194111946503        2.62204709494470
C            7.23701326888075       -8.16060538946792        3.05970505071433
C            5.19882625838697       -5.97213239682312       -1.48060239087546
C            6.17126422551918       -4.99235967230246       -1.11514938508695
H            0.92429051110752       -2.72207649176163        1.84905560048202
H            1.26752388461289       -3.74260047895630        0.45585841490844
H            1.71561021947380       -2.04489626765006        0.42901984730314
H            2.93680205365398       -4.14992474725192        2.30494391099903
H            3.38293107195797       -2.46693600928526        2.28554465625825
H            4.18316421620567       -2.68670478500646       -0.08305667587126
H            3.68936774018126       -4.35054468547746       -0.11050815050402
H            5.34412632760746       -4.84635883849969        1.76633998232003
H            5.80426795550070       -3.17512593636334        1.75616252294805
H            7.79318029881844       -2.30380381793969        1.65140396362941
H            9.64543986879191       -0.97320175984827        0.74152068692800
H           10.39911751622608       -1.28928988336449       -1.57572520600919
H            9.29913228284090       -2.94271665453275       -3.03449959692761
H            7.68990477110382       -4.60380337178518       -4.16926099331908
H            5.93067309143848       -6.21015796724986       -4.82570536410773
H            3.92596043514956       -7.81100376066913       -5.03031080366212
H           -0.07888551740030       -9.48434205959827       -4.29889791293745
H           -1.05798088342537      -10.66414421079234       -6.22714928004732
H            2.79036206013844      -11.11893120732913       -7.93005725931929
H            3.79525530150338       -9.96256861525432       -5.99988359372847
H            1.25729004298744       -9.87666967581309       -2.40697425580205
H            2.16180362275491       -8.67107476784947       -0.47364129142616
H            3.64264726829599       -7.86852739216240        0.90138511564486
H            3.96843866545848       -6.20284607715329        1.25369489250379
H            6.45135272591074       -6.66472995021042        0.88707732159927
H            6.07248877045853       -8.32255126045914        0.53975044148404
H            5.13335849223846       -8.60940559072280        2.85344853670216
H            5.46499764267677       -6.93653323296794        3.20585422337290
H            7.60523077169389       -9.02894621220857        2.51155411930074
H            7.28607369037073       -8.39845696468946        4.12408559491632
H            7.93410949320593       -7.34234185044811        2.87294863280926
