66
 energy: -12.903551410074 gnorm: 0.000668200187 xtb: 6.5.0 (97a52f5)
C            1.47358225632490       -2.79791465691977        1.29146691711057
C            2.82195248715989       -3.10795773870273        1.92203489944378
C            3.87654094658558       -3.50459967996494        0.88947082575101
C            5.22155057057100       -3.85934083523557        1.50762925073539
N            6.21677421075843       -4.24975338839835        0.49352127966441
C            7.31035025403250       -3.42777995262271        0.17570227785254
C            7.92805998063666       -2.39117209562984        0.88558120639170
C            8.97574028866793       -1.72297161584946        0.30494909265305
C            9.42673412485319       -2.05792567200864       -0.97752705358728
C            8.83176740650092       -3.06629870565139       -1.69195148416543
C            7.76493931207481       -3.76154000994719       -1.11176763709891
C            6.91735461982751       -4.80969658935063       -1.60274402902045
C            6.86212815053904       -5.40152639798731       -2.88604558740580
C            5.88924360895630       -6.31458663353425       -3.16178088423983
C            4.97436367811183       -6.68260151004434       -2.14876899622703
C            3.92047254047012       -7.65607578534024       -2.17149467331012
C            3.41848533050970       -8.46554054210203       -3.19098756683676
C            2.38734214635703       -9.34948442065977       -2.91602825932330
C            1.82704153604892      -10.20501413498793       -3.98477390004215
C            0.45883711045651      -10.46436377873546       -4.05375342558122
C           -0.05716150521989      -11.25703698898418       -5.05522589008428
C            0.77907485954853      -11.80557354668553       -6.00528055435545
C            2.14199417897882      -11.56547114138818       -5.96137938598477
F            2.96938443960477      -12.10835025912972       -6.89601330350812
C            2.65315354608249      -10.76847174666819       -4.95504242501955
C            1.87613657875773       -9.41965371571094       -1.59887212260186
C            2.36348614585570       -8.63445916915349       -0.58908456721187
C            3.39563079998052       -7.73060482480551       -0.86965122835950
N            4.08651912016161       -6.82439846985293       -0.05338151782408
C            4.11256293337339       -6.95569714901287        1.41412457556606
C            5.49007197763538       -7.33295062068926        1.94005077511112
C            5.53831079537832       -7.46196536486995        3.46253742442784
C            6.92840381127575       -7.79612174215489        3.97976895914954
C            5.02854071780096       -6.14358116558650       -0.84998468430341
C            6.00067394764567       -5.13095224098120       -0.58357756224533
H            0.72915585014993       -2.50692870848159        2.03577054752580
H            1.08093103896636       -3.66390215088414        0.75553776399857
H            1.55395385690911       -1.98281011455518        0.57021559918079
H            2.71601862178278       -3.91234176369297        2.66158387074154
H            3.18189127379564       -2.24269976614931        2.49401982671473
H            4.01370636344101       -2.69226315535334        0.16595093296683
H            3.51096986454201       -4.34833894714317        0.29377171703573
H            5.13213863561469       -4.65803642613178        2.24467969020381
H            5.60696394463914       -3.00154377879112        2.06453792331297
H            7.58860652252237       -2.13648589108441        1.87334118052503
H            9.46047088790287       -0.92453233431681        0.84255958195474
H           10.25056927442090       -1.51329492054919       -1.40881887965721
H            9.16661818415788       -3.32470474134186       -2.68097586772345
H            7.57240317485731       -5.10398383217651       -3.63692556290700
H            5.81717521025285       -6.77266697769995       -4.13229887293314
H            3.82019813560955       -8.38660763612053       -4.18389302288782
H           -0.19731493282561      -10.02524619742634       -3.32241523496784
H           -1.11714380179684      -11.44739024460933       -5.09853792334419
H            0.38756696338108      -12.42511543390689       -6.79264089247826
H            3.71281420831731      -10.59701332050348       -4.92210524207402
H            1.08806801989961      -10.12229317826755       -1.39074630399303
H            1.95515751180830       -8.69561090482664        0.40351885360443
H            3.38667609700752       -7.71768441035814        1.70921053610596
H            3.74764070552528       -6.03048432531185        1.86119582456975
H            6.22667669617987       -6.59310181428851        1.60768891832021
H            5.81026487480574       -8.27329519215829        1.47579489345641
H            4.81960124948413       -8.22709660020045        3.78449954510066
H            5.18137331473154       -6.52896756733302        3.91794849264847
H            7.29062546894144       -8.73542366990438        3.55846120401262
H            6.94910974053209       -7.89339998296210        5.06737340324270
H            7.64747013816919       -7.02209372412036        3.70555675221035
