31
 energy: -4.482214151440 gnorm: 0.000592978646 xtb: 6.5.0 (97a52f5)
C            0.51503775967394       -0.16855179207038        0.52665947494015
C            1.99755387763937        0.01022542159131        0.23832757749508
C            2.69524547946369        0.88919719564086        1.26994158042417
N            4.15705741129885        1.01225424146085        1.04556166556408
C            4.56223010619601        1.65630931107432       -0.25568239179545
C            5.18950027137599        0.66214345585514       -1.22363625503278
C            5.56828963210244        1.29474234211288       -2.55334949637549
C            4.84277623020294        1.57731136733854        2.23629031556033
C            6.34459797804146        1.31435294938860        2.24826035539091
C            7.02444734237274        1.85861485817395        3.49520494282785
H            0.02442219582145       -0.79961406993754       -0.21850756050130
H           -0.00384232660678        0.79238317133495        0.53654039255971
H            0.35521441617859       -0.62979668083491        1.50358210880846
H            2.13727142823987        0.43612038389454       -0.76347345808252
H            2.49910732368109       -0.96600266436558        0.20385179121097
H            2.53085341356594        0.47360252778703        2.26873074607268
H            2.25664308592622        1.89160361203268        1.28339416575963
H            5.25572547385225        2.47862829236898       -0.05498752252952
H            3.68457776970196        2.12801591303967       -0.70857643554976
H            4.49482325570884       -0.17286120789639       -1.38397504338245
H            6.07038867752171        0.20716402849555       -0.75136928631572
H            4.69450587153471        1.72317389923575       -3.04959022963963
H            6.01445786002794        0.57141573705440       -3.24069870740520
H            6.28887146195074        2.10398758975706       -2.41513618828092
H            4.39450317481053        1.14435611263319        3.13574261911182
H            4.63628351093068        2.65077974057644        2.28400750183741
H            6.80348937820370        1.74653819293818        1.35003839190663
H            6.51809353751069        0.23352645558536        2.16026432485093
H            6.88687730785320        2.93863941417976        3.58016733274312
H            8.09946363659408        1.66252132838756        3.49627321051724
H            6.60848345862464        1.41027887316724        4.39995407730944
