75
 energy: -14.694578851298 gnorm: 0.000955769204 xtb: 6.5.0 (97a52f5)
C            6.02199600955221       -1.87530929975487       -4.09725721993247
C            5.66373499215219       -1.23954796214249       -2.76384564031584
C            6.60124212059183       -0.10325852438595       -2.37881311516195
N            6.20266196351206        0.53517969797028       -1.10919716128732
C            6.54739029427258       -0.13050077721669        0.11256127482731
C            5.58193090538196       -0.34077753408907        1.09772059966232
C            5.89659434171638       -0.99544110938182        2.26614298297811
C            7.18090560340921       -1.45707282940023        2.47651403853993
C            8.14944684893127       -1.26098562536444        1.51166843672019
C            7.83874486331398       -0.60686074221077        0.34122200087986
C            5.34867135053750        1.66925044600488       -1.13343429003861
C            5.23999349312886        2.48424772928959        0.00305864539483
C            4.43377663379224        3.59647774539289        0.02023825545584
C            3.69996035706237        3.91355155271955       -1.11726205664253
C            3.78294020548311        3.10639868104998       -2.25838098908191
C            4.61254630265675        2.00987212657780       -2.27498490826831
C            2.89688253716899        3.69658322872397       -3.36133114365604
C            3.73204557581916        4.04251422918891       -4.62085513104279
C            4.86971803895023        5.01269319627661       -4.34578321098357
C            1.70181918786550        2.76470198968154       -3.70405744032208
C            2.06773182066228        1.39531696196011       -4.25229248940261
C            2.35194919272618        4.96831136617156       -2.70066399186132
C            1.50802098316411        5.93264766678831       -3.20024665279235
C            1.11426901043137        7.00809966452426       -2.39250651501864
C            0.21066607862597        8.00058534057671       -2.93710551870810
C           -0.28852736803955        9.06106356964445       -2.27172129206745
C           -1.19971477943917       10.01110527941719       -2.82995516685705
C           -1.70863347512262       10.03190685988304       -4.10681822829100
C           -2.59827482379345       11.09125425371154       -4.34777198658828
C           -2.79960549378011       11.91559166631598       -3.26669056338918
C           -3.64264332808232       13.06364778745139       -3.17715792311187
C           -4.43163706212019       13.57914331675473       -4.15120146900752
C           -4.52246977596010       13.03584606375594       -5.42876199858823
N           -4.61983508037741       12.60862841310909       -6.50478241512098
C           -5.24197296678808       14.78079995077805       -3.84520066923303
O           -5.17181052977882       15.27490623881264       -2.73162775426009
O           -6.03784251684956       15.27999131342349       -4.83940008233067
S           -1.84220719465640       11.35329167224897       -1.92334371885209
C            1.60401324879525        7.07569845222088       -1.07780769349289
C            2.44900345700184        6.11378896384523       -0.57433811109586
C            2.82327839179892        5.05001173238743       -1.38695626360069
H            5.34133689151388       -2.68783457780940       -4.35930230104591
H            7.03314084009642       -2.28500150362331       -4.07917115292881
H            5.98547086374780       -1.14265771916145       -4.90505967098145
H            5.67135936576901       -1.99405519275396       -1.96674921850708
H            4.63224338676350       -0.86680994576096       -2.78423888931620
H            6.64392019860959        0.65641772260993       -3.16366342919742
H            7.62425733859582       -0.47546208692167       -2.28542386239025
H            4.57809525628103        0.00407847229673        0.92165322031579
H            5.13923049765893       -1.15058989585620        3.01696203156884
H            7.42689236354244       -1.96972423476888        3.39193288625474
H            9.15237833811096       -1.61886509579424        1.67744423243699
H            8.60214806221668       -0.43308430233949       -0.39598132751770
H            5.82644734751132        2.23793177193296        0.87029206442111
H            4.37124024060995        4.22479378361055        0.89091867436481
H            4.69390342110639        1.42371713833292       -3.16947507224499
H            3.06068192455986        4.45440100378061       -5.38228494227219
H            4.13045246345284        3.11581377709260       -5.04624546173346
H            4.49563951542907        5.95628224617905       -3.94594248939495
H            5.44144024977229        5.24056309923831       -5.24758222071594
H            5.56476016755502        4.60587873917550       -3.60972009708165
H            1.05682358657678        3.29002586010520       -4.41734278346432
H            1.09624163726256        2.64997713273892       -2.79769766764511
H            2.67863178464281        1.47033704361695       -5.15223667500807
H            1.18015421611543        0.81514597088397       -4.51357407432865
H            2.62527280903162        0.80968326944926       -3.52143642763861
H            1.14649078387874        5.85614093229023       -4.20929810024904
H           -0.08985900346858        7.85900404312467       -3.95911381342590
H           -0.00875284254716        9.21836619868741       -1.24637255296474
H           -1.45828294830790        9.29739487644447       -4.85550494533116
H           -3.08654683760185       11.23955417413807       -5.29597848972645
H           -3.65342972753458       13.56929082770570       -2.22710295956061
H           -5.95487125850988       14.74476958552878       -5.65211396350437
H            1.31512738960600        7.89694799317340       -0.44743089273577
H            2.82058226410974        6.17279614002647        0.43333694738078
