85
 energy: -13.280906170846 gnorm: 0.000525692602 xtb: 6.5.0 (97a52f5)
C            1.03434914416013       -0.32990803631019       -0.01118398969942
C            2.54746363722832       -0.20677255550204        0.07230160059479
C            3.00198017555747        0.95372380219081        0.94557767023882
N            4.46838868477130        1.06326542070479        0.99412355863502
C            5.25154238030830        1.69342076551017        0.04756974192856
C            4.74965674712111        2.34395027125981       -1.05926560033613
C            5.49146614503980        2.99463992301007       -2.03398721219204
C            4.94187557330544        3.66581616599714       -3.14497630535920
C            5.76962574181569        4.11929125532219       -4.19180535175986
C            7.12574257547616        3.85167265591486       -4.31960102291597
C            7.96501602804487        4.34174837585540       -5.29820945418362
N            9.30856851844701        4.03349100291926       -5.38772886497719
C           10.02150773159200        3.07770825186778       -4.52536571133563
C            9.84420966392863        1.64363282781668       -5.00323675554917
C           10.56945288798137        0.63241979128230       -4.12998911529252
C            9.93561146762112        4.67060502961811       -6.48500262321197
C           11.24686029445321        4.60848776051219       -6.93866496412799
C           11.60118194253752        5.34663184444356       -8.04673810085103
C           10.66825011897939        6.13604530639557       -8.70000952732916
C            9.35976367769653        6.19663485827012       -8.25540753513030
C            8.99624865183020        5.46132494898481       -7.14740370481657
C            7.64509338333717        5.31086221488072       -6.44741540878284
C            7.18125530952299        6.67390630226111       -5.91201416976036
C            6.62758686568202        4.70408707952033       -7.42629158203539
C            3.49522647007196        3.92444563437407       -3.23526553405253
C            2.74880874435285        4.33452991012283       -2.11875435420950
C            1.41111465208473        4.56674744991760       -2.22629779831028
N            0.77426574751023        4.40669432232851       -3.42342210792704
C           -0.66258749214376        4.66905900438699       -3.53228968683963
C            1.47725952006931        4.03654354936751       -4.53357265754401
C            2.81626774569963        3.79844926363168       -4.45772705927044
C            6.71587099709680        1.51510125277899        0.47825870604413
C            7.50927209821675        0.70700074120093       -0.56049319578594
C            7.37805934627264        2.86845298965189        0.77850071246561
C            6.59066120145115        0.70365079633101        1.76806112344386
C            7.55618922114395        0.22498955730021        2.62769237000411
C            7.16429418234503       -0.50163574089076        3.73750646260113
C            5.82314634764873       -0.74984912878530        3.98267731025820
C            4.85144429356334       -0.27730364410252        3.12769912879937
C            5.23963834547909        0.45656128106567        2.01426215096313
H            0.72725957386604       -1.16755196662537       -0.63991870934532
H            0.58827955320504        0.57438634406194       -0.42701641355363
H            0.59686826739794       -0.48158749103409        0.97638070217758
H            2.97477153631809       -0.08966751079205       -0.93109554259549
H            2.98501445932789       -1.13567655939985        0.45849205326242
H            2.62475883750363        0.84031454732424        1.96450106162717
H            2.58935527475005        1.89897834721508        0.58539743084522
H            3.68522199020199        2.32180855138374       -1.19073594982313
H            6.55807130774337        2.97343677804096       -1.94238510331301
H            5.30076015785273        4.72432133245541       -4.94318909575194
H            7.56716230621611        3.18641309795402       -3.60417568937994
H            9.67032798508274        3.19493935991371       -3.49765115103283
H           11.07972921584520        3.34801920367773       -4.50373127713933
H           10.19204286053834        1.56952600120419       -6.04103204685179
H            8.77349155722234        1.40955132909953       -5.04742403481488
H           11.63931020050202        0.84131718366098       -4.09212985100043
H           10.44554141403527       -0.38807645930951       -4.49681164647503
H           10.19903012309311        0.66015356401719       -3.10454784391816
H           11.96613279425876        3.99038248377622       -6.43295198921942
H           12.61485610316945        5.30847160098392       -8.41007756945934
H           10.96362356656753        6.70639160583236       -9.56490914770878
H            8.63045891753812        6.80387671233802       -8.76150774819203
H            7.92506403087475        7.08691427221218       -5.23221967789549
H            6.24058446090477        6.59524381465985       -5.37178694432731
H            7.04066004740736        7.38188297041582       -6.72719321800028
H            6.97404885076547        3.73439747491892       -7.78059494829535
H            6.49462964456437        5.34969197551721       -8.29295354205997
H            5.65328050559075        4.56441218492678       -6.96484905427395
H            3.25203847519867        4.50336172331391       -1.18296438360203
H            0.83720493482647        4.88920095179243       -1.37536404430362
H           -1.13219414680737        4.63644810300821       -2.55183130185981
H           -1.13304247017905        3.91897105311893       -4.16414013682824
H           -0.82525758619991        5.65217568844165       -3.96816627505393
H            0.94917965775654        3.93592161141348       -5.46559875384140
H            3.35987127735875        3.48404713710851       -5.33103382011456
H            7.59580031270704        1.23611842751830       -1.50626815520029
H            7.01955539899491       -0.24640313427968       -0.75324510142050
H            8.51599717706958        0.50046341269466       -0.20082689011228
H            7.44575792326410        3.49136456395313       -0.11026837522610
H            8.38617340339259        2.72787539048191        1.16508218027856
H            6.80396670929561        3.41314420863941        1.52657194353965
H            8.59573672803863        0.41826616010463        2.43077189042896
H            7.90995135761754       -0.87844957350879        4.41764169378705
H            5.53691554807614       -1.31892743631105        4.85169105947940
H            3.81071098999275       -0.47253153731956        3.31194427420592
