84
 energy: -14.583644365710 gnorm: 0.000455739670 xtb: 6.5.0 (97a52f5)
C            0.84957230908848       -0.37502959235684       -0.23931633962950
C            2.36561451239753       -0.37584432067537       -0.12710605629781
C            2.98108131269236       -1.73578800555072       -0.42436943493370
N            4.45190459007054       -1.69684025331183       -0.38741642333740
C            5.25924376475084       -1.27840606083229       -1.39814436317582
C            4.78649109170074       -0.81919250534703       -2.62166893026338
C            5.54782212595643       -0.40517057670067       -3.69341848935227
C            5.00211520694156        0.10702411056633       -4.88388796867156
C            5.80483827479962        0.37313285985873       -6.00717560401217
C            7.14852346804351        0.08222538813952       -6.11728184385378
C            7.96441555437070        0.36910183686501       -7.20643706868123
N            9.28261620375900        0.04008216168377       -7.27222046544364
C           10.03402810838539       -0.72046233901792       -6.26044183908810
C            9.82791896591135       -2.22070014550706       -6.41174682826354
C           10.58441059504890       -3.03150608745146       -5.37195052571864
C            9.87890712050362        0.43607398482041       -8.50262476313303
C           11.17305882691138        0.27302393872825       -8.97581933137263
C           11.49105569994431        0.76532745685680      -10.22380816462599
C           10.53745950794649        1.41037915374762      -10.99469729770745
C            9.24512986265205        1.57058605681573      -10.52908810431679
C            8.92039445743709        1.08051295292026       -9.28146748285062
C            7.59742156263604        1.08487316596152       -8.51703476075330
C            7.15024819253067        2.53078353679217       -8.25522258768209
C            6.54508038099327        0.29624571409973       -9.31211214397688
C            3.55159029488401        0.39239939750401       -4.97348213896208
C            2.90407827805875        1.15329379243251       -3.99615057673776
C            1.55522557652817        1.39892682843977       -4.07448334149650
C            0.81398468136369        0.90062536879027       -5.12932398901445
N           -0.62533512742762        1.15506963189128       -5.20214349808401
O           -1.16667860453077        1.77859313531613       -4.27564424689226
O           -1.25489752131377        0.73751432561836       -6.18667170117512
C            1.44213476165417        0.15960735015292       -6.11312568019692
C            2.79137981249237       -0.08979283027332       -6.04204858149011
C            6.71168192417375       -1.36481103144761       -0.90252140789638
C            7.51505443745015       -2.39878513866080       -1.70551726332582
C            7.38764237912971        0.01486238249218       -0.91205923976625
C            6.54290531652125       -1.84675967219895        0.53780116568504
C            7.47440380174168       -2.08328991788470        1.52697961786889
C            7.03742113619581       -2.49890045464075        2.77153287290225
C            5.68623551516246       -2.67352151043402        3.02378469112529
C            4.74955589499492       -2.43939536743375        2.03946647651835
C            5.18395121274819       -2.02689012096625        0.78801435188222
H            0.42414012895873        0.60707178265864       -0.02508489024273
H            0.40299789494895       -1.08650337353130        0.45653046682380
H            0.52938426137926       -0.65983982954251       -1.24258327756259
H            2.67622685445009       -0.05373102881213        0.87462606243671
H            2.79574631062705        0.36941288858743       -0.80717499322759
H            2.66620456695497       -2.09891649951667       -1.40607279847360
H            2.62863462127880       -2.48408612264827        0.28960096844619
H            3.72047563401376       -0.78634498097109       -2.74212865189850
H            6.61302312138857       -0.48665611309903       -3.61750402354301
H            5.31472927091981        0.83914447785119       -6.84026924547391
H            7.61411504674059       -0.42970440864797       -5.29828404128784
H            9.73201160338157       -0.38239180566596       -5.26612856241300
H           11.09343564299026       -0.46668867737591       -6.34413627061524
H           10.12906201943991       -2.52098984463611       -7.42314621214434
H            8.75480817063757       -2.44276509650071       -6.35987462741711
H           11.65694951161956       -2.84073283694210       -5.42814799964760
H           10.43374257575776       -4.10491404924625       -5.50120584306623
H           10.26348753207360       -2.77343370932711       -4.36186476473416
H           11.90896969137017       -0.23341832927715       -8.37810475946860
H           12.49226152326906        0.64660581210314      -10.60394585024472
H           10.80408395745822        1.78948380835397      -11.96727688246896
H            8.49833946946721        2.06650880834021      -11.12348907906821
H            7.91642790030160        3.07005263198587       -7.70005391600530
H            6.22896076875220        2.56892185836750       -7.67838995432119
H            6.98005586113620        3.05839555845575       -9.19240794993246
H            6.88212304436182       -0.72609046181961       -9.47713396229756
H            6.37460994156615        0.75441456541617      -10.28513424240361
H            5.59047717891737        0.25493774768134       -8.79347030840909
H            3.48084253147707        1.55969978019532       -3.18353664001310
H            1.05710567500020        1.98328172843346       -3.32008035428455
H            0.85458067643642       -0.21957210738115       -6.93157505948470
H            3.27426875280537       -0.67742039566466       -6.80320628439384
H            7.62519845843203       -2.10429670005302       -2.74658522890627
H            7.01803270176086       -3.36748679990270       -1.68153615390503
H            8.51223597001307       -2.52246605097669       -1.28591289180981
H            7.48890151816073        0.40809404923057       -1.92091299965812
H            8.38303872665465       -0.03964099313065       -0.47401052895925
H            6.80342390603189        0.72734552258672       -0.33148035658778
H            8.52134472788923       -1.94090703287623        1.32544963798332
H            7.75499140156389       -2.68493139350478        3.55334842869920
H            5.36343313340401       -2.99355058045825        4.00072464961575
H            3.70004225087929       -2.56575039853442        2.23421869656187
