52
 energy: -11.212960832919 gnorm: 0.000822503598 xtb: 6.5.0 (97a52f5)
C            0.97050734407017        0.09701304550018        0.26482708530933
C            0.16121470760505        1.05692762733384       -0.21948814978876
C           -1.28809440639829        1.04828068901836       -0.19917782496387
C           -1.99960050640746        0.00136685221792        0.42554046921319
N           -3.28947454965330       -0.09817939309622        0.48939582428826
C           -3.94815673714027        0.92249012933060       -0.11175835664857
C           -5.35729999641481        0.93359019129864       -0.11311913758647
C           -6.05763351205779        1.94415378068621       -0.70553477438352
C           -5.38251288739878        2.99460297871289       -1.32558551098637
C           -4.01894609380619        3.01748786891821       -1.34330489453948
C           -3.26019101802290        1.99038702367684       -0.74263212760685
N           -1.91153128616274        2.05366219727529       -0.78601417095012
C            2.41917194933376        0.12916285496846        0.23112442504681
C            3.14261975201899       -0.94890876734441        0.75240241126623
C            4.51455390715994       -0.95482041721789        0.73873833369308
C            5.23016761827432        0.11679490517239        0.20513632974571
N            6.65923010270028        0.10827972654251        0.18932772226438
C            7.37731677699732       -1.13209556900951        0.08691830839809
C            8.54017707943994       -1.34065493161755        0.82470194593941
C            9.23534963740135       -2.52421517865737        0.72022765350361
C            8.78426771607993       -3.52043927016071       -0.12363302752211
C            7.63454522326096       -3.32753331543081       -0.86479348337652
C            6.93722994901704       -2.14504537438029       -0.76176923114515
C            7.39793624308756        1.33869866998657        0.25679843139923
C            8.54649035039886        1.51782966276584       -0.51049714634746
C            9.25986783412809        2.69327666057980       -0.44474665365147
C            8.84144765451117        3.71111379809755        0.39014093783250
C            7.70649756136316        3.54764199979538        1.16054813510771
C            6.99105141562209        2.37313397713280        1.09628864443893
C            4.51298192095501        1.19385804463066       -0.31551770255748
C            3.14039686724288        1.20207284001828       -0.30444511665233
H            0.52921732630436       -0.77519329294615        0.70928792906741
H            0.60418521558855        1.91947357335786       -0.67979135203220
H           -1.44481786183209       -0.79216793853209        0.89603106435919
H           -5.87374266494466        0.12128850282888        0.36721303872281
H           -7.13519829302739        1.93266364120381       -0.69474563407878
H           -5.94194030964701        3.78934018101821       -1.79123252128840
H           -3.49338007108069        3.82561350311870       -1.82074184561699
H            2.60657718211184       -1.78374895858087        1.17029066527491
H            5.05744275616751       -1.78583299846626        1.15354437896611
H            8.88316893383455       -0.56234215950531        1.48369915400730
H           10.13269783800727       -2.67365364879928        1.29815456570135
H            9.32968210215413       -4.44630796262401       -0.20518894562769
H            7.28429093601490       -4.10291851986612       -1.52632862194683
H            6.04820650271573       -1.98374828844924       -1.34605904710533
H            8.86368526360978        0.72317727668251       -1.16291399208543
H           10.14544800951429        2.81958924462625       -1.04589062626674
H            9.40076424835617        4.63090831166884        0.44100298995054
H            7.38181058481668        4.34021858918836        1.81476874529757
H            6.11321732145711        2.23557452035985        1.70314851737749
H            5.05581611086254        2.01904044436230       -0.74209741118874
H            2.61625825181258        2.04586267260848       -0.71511040022580
