68
 energy: -12.025345626008 gnorm: 0.000647252047 xtb: 6.5.0 (97a52f5)
C            0.82921008380557       -0.48202772754227       -0.36119550670759
C            2.28597822198482       -0.14596207144029       -0.07479170267957
C            3.15006777465958       -1.38833839499935        0.08791996213607
N            4.60375603225908       -1.21861124443634        0.36827278994699
C            5.33503053426219       -0.07149643563151        0.51751205837649
C            4.94649983102592        1.27068948972018        0.46179476103826
C            5.83526345728562        2.30291304933811        0.61658241789815
C            5.51050205656059        3.67232555534898        0.54193848985303
C            6.51659349992033        4.66036040092439        0.53984963867083
C            7.86561462061831        4.44014722051412        0.66074672497551
C            8.87746051531078        5.41201674016202        0.65112001841037
S           10.48521651698764        4.98993775646036        1.18184665553257
C           11.09091066657889        6.61495084436449        0.94758421277996
C           12.35695145051820        7.11952362176748        1.19122606357571
C           12.61185393824171        8.44508009323690        0.92678052627728
C           11.61158605258979        9.26787894058269        0.42138048464548
C           10.35266736890531        8.77456671459335        0.17655391196902
C           10.07975604680859        7.43002472719778        0.44237287472995
N            8.85825302059702        6.72324013533363        0.26972310331304
C            7.73259125617539        7.40022311422221       -0.40497854723490
C            6.89106282227792        8.22875147994882        0.55843906516700
C            5.69904151902108        8.88993257328694       -0.11554214219690
C            4.10272517818706        4.10738073817835        0.44698862212417
C            3.12433151753487        3.58894263522712        1.30358104230814
C            1.81797732981905        3.99907383384014        1.21154617478162
C            1.44444848865509        4.93849145432137        0.26812169145693
N            0.04978886772321        5.36081927536331        0.16447049055288
O           -0.78721609763979        4.83873598422639        0.91628879335506
O           -0.24955478070532        6.22582996884797       -0.67244595717201
C            2.39978808492170        5.47228326894012       -0.57757633184111
C            3.70934774171412        5.06992754361120       -0.48978217153032
S            7.00656669232663       -0.47140667357841        0.81933471309355
C            6.70696381361287       -2.18849381851725        0.75293340901359
C            7.59654475429263       -3.23697552971944        0.91398599737197
C            7.13321486240981       -4.52833746235350        0.81892313389611
C            5.78943576478600       -4.77650633363438        0.56411667876818
C            4.90135127005110       -3.74018897867533        0.40376282755228
C            5.35689570532422       -2.42126592958235        0.49849395836619
H            0.21863442306563        0.41505559887497       -0.47956389486920
H            0.39402281391337       -1.07102283869642        0.44729023397262
H            0.73223543208149       -1.06797482703133       -1.27619493496096
H            2.34676311401443        0.45839738524285        0.83806121914137
H            2.68517493091612        0.46806919473070       -0.89106082832482
H            3.07237153368647       -1.99466394071508       -0.81920791092004
H            2.74127701388608       -2.00163631423671        0.89611813075930
H            3.92668967644033        1.52169661392072        0.26060353254102
H            6.86303432238843        2.03281251163443        0.76331533643238
H            6.17228293720213        5.67436659505986        0.49635406098363
H            8.20248304121482        3.43489357730618        0.83856842492556
H           13.12215247715182        6.47170733532829        1.58220386272497
H           13.59316474701789        8.84944092443174        1.11235213919263
H           11.82644660497870       10.30453447773239        0.22075691359792
H            9.58233805163442        9.41555342906863       -0.21187724755256
H            7.13090878511909        6.65567929664785       -0.93006062880673
H            8.13983264736809        8.03426642138835       -1.19703966949756
H            7.52760235216027        8.98680945733935        1.03099219680931
H            6.55726611384480        7.59595702140941        1.38936700558427
H            6.01970540370017        9.55257723374230       -0.92051606175535
H            5.11067130892498        9.48427803676882        0.58591197412662
H            5.03325036197739        8.14671397793048       -0.55574169566723
H            3.41393217282035        2.88162808648803        2.06127243489185
H            1.06724561906594        3.60149158158901        1.87298578464832
H            2.09586116894774        6.20345499439219       -1.30705894963176
H            4.44316885031455        5.47385459733480       -1.16506534546131
H            8.63404894290522       -3.02924196655493        1.11030192132040
H            7.81548383934337       -5.35313042692780        0.94203073758922
H            5.44137467947634       -5.79369203275122        0.49160832202855
H            3.86360015501993       -3.93992256089704        0.20726400358634
