72
 energy: -11.859419471338 gnorm: 0.000855227175 xtb: 6.5.0 (97a52f5)
C            0.71530182948567       -0.86932727397323       -0.02944862871314
C            2.21686353811085       -0.91918309228483       -0.25968639563282
C            3.00881112706180       -1.09952835391697        1.02696215099033
N            4.45647325498422       -1.15610209198427        0.77515623219547
C            5.28565420129858       -0.04763683163737        0.62224282917021
C            4.88256548826336        1.25316288384413        0.78570729489002
C            5.68988718915136        2.38711877657528        0.64938180288342
C            5.23415827661856        3.67159368344199        0.87530310613709
C            6.03503837814059        4.78960407479057        0.74306570955991
C            5.58804420056578        6.08700184410386        1.01321935635675
C            6.33139512434036        7.23509354580516        0.90984380627230
N            5.85664428067765        8.51062973401074        1.20553172116984
C            4.53141645248809        8.80603758525310        1.77000868290116
C            4.50563238812846        8.62839737995816        3.28101098499510
C            3.14083966630494        8.91101518264075        3.88679262992428
C            6.85258865273603        9.50236732484857        1.05281533282123
C            6.80345233244541       10.87398056581609        1.27176733307295
C            7.93588350432413       11.62462157555397        1.03722876086078
C            9.10437945526738       11.02513520714964        0.59190127089210
C            9.15910254337479        9.65885996654103        0.37572324048588
C            8.03139071855052        8.89982665026096        0.60831499913898
C            7.79992777399041        7.39308281745433        0.48280834897962
C            8.00530158000662        6.95552765242979       -0.97486002970321
C            8.74471859352115        6.65042366798941        1.44024585579840
C            6.68084023183780       -0.58099803243219        0.25778468436084
C            7.11999437840252       -0.09441273841239       -1.13172357721267
C            7.71269901488824       -0.22659912523494        1.33882648724086
C            6.46900779750444       -2.09545588637009        0.22416742270429
C            7.34884211035430       -3.12062480038208       -0.05347430937108
C            6.88752837696160       -4.42556740077712       -0.02973521332484
C            5.56078918956042       -4.70167077844733        0.26514588393833
C            4.67406786630480       -3.68332882167861        0.54355750686661
C            5.13387105625202       -2.37179890800108        0.52614131546474
H            0.16269866242910       -0.74165541067501       -0.96227349094224
H            0.44547288095494       -0.04285271604037        0.62934146533583
H            0.35858898830559       -1.78655320488105        0.44129834355029
H            2.55587629289456       -0.00597759174251       -0.76444210966183
H            2.47003723762419       -1.73305739999370       -0.95054579774348
H            2.70627651353393       -2.01644125074168        1.53913169864421
H            2.80056094093082       -0.29045585106321        1.73137017822432
H            3.85500705310237        1.42367462614374        1.04904821162461
H            6.71887288971572        2.26585891251572        0.36939580996005
H            4.21080041712481        3.80672462247200        1.17866064510482
H            7.04828291816589        4.64172172130613        0.42173788017519
H            4.56948094351559        6.18544044337946        1.34043393723388
H            3.78879714395226        8.16511599558065        1.28832218298102
H            4.25382913133825        9.82721527591180        1.49766792099530
H            5.26553307909046        9.27913382108519        3.73047490720760
H            4.82683788498220        7.60896930261881        3.52657971240306
H            2.82717578346816        9.93703991671464        3.68885663316932
H            3.13496195496055        8.76606017166167        4.96897657656070
H            2.38005691219759        8.25323355495937        3.46399192448781
H            5.89711414234694       11.33425953313330        1.62103837624418
H            7.91308642736353       12.68897509238334        1.20339947243011
H            9.97968118252047       11.62780800534802        0.41396143710066
H           10.06343743289252        9.18730248898969        0.03402972727261
H            7.33586030988987        7.50586830442998       -1.63443634346943
H            7.80907021532926        5.89415493861806       -1.10853895807993
H            9.02763346086869        7.14933418469336       -1.29588539335388
H            8.57920795632104        6.97748979644530        2.46571314540725
H            9.78477649342911        6.85125608863395        1.18803308231145
H            8.59647867445012        5.57388653990325        1.40432693846271
H            7.25868477297239        0.98370653335885       -1.15957827927517
H            6.37199407995121       -0.35544931152731       -1.87898265087028
H            8.06121511123200       -0.55818931818817       -1.42307356393492
H            7.86432253219585        0.84753424437405        1.41613122384285
H            8.67582317259648       -0.68448729996789        1.11840795243554
H            7.38316585283137       -0.58920905272106        2.31143957968414
H            8.37574683074867       -2.89973849723050       -0.28513234002564
H            7.56609001814786       -5.23424345347761       -0.24450305059967
H            5.21911535158956       -5.72344462582559        0.27669558288051
H            3.64400778212081       -3.89262511353691        0.76823083613035
