53
 energy: -10.475103571700 gnorm: 0.000765682517 xtb: 6.5.0 (97a52f5)
C            0.84340215412268       -0.62935559941454       -1.89058880762705
C            1.94778218812764       -0.05752526160702       -1.01622945826541
C            3.15465156286889        0.40932194053968       -1.82241932599009
N            4.32145072973553        0.81971477265371       -1.00610865705026
C            4.65456995690099        2.17221262696976       -0.93349397633191
C            3.74764644140419        3.20533116964111       -1.33042072192258
C            2.44785998576215        3.40494769061682       -0.83431682927644
C            1.68829371558244        3.05209523280696        0.31162868445506
C            1.85324503624635        2.29262402484186        1.52992469373852
C            0.89362104532872        2.38864773148575        2.54402012314938
C            1.03414708021111        1.70067047501722        3.71972551851959
C            2.14325926999004        0.87517202210521        3.94486380800565
N            2.29158455308225        0.16754454158492        5.15039381419955
C            1.24060511086304        0.15252692127173        6.16776809770260
C            3.50797611025410       -0.58718122246259        5.45177087673108
C            3.09634167730803        0.76970706730885        2.92448607085463
C            2.95320146028175        1.45744309285355        1.75063524230598
C            0.60812094510619        3.93129949708585       -0.08383831823562
O           -0.48073242722067        4.24464614701573        0.36737827676898
C            1.39368049086502        4.32378901469562       -1.27977499661667
O            1.22210418066868        5.08456851510138       -2.20858595099324
C            5.96119677064621        2.52103534782308       -0.49867074328001
C            6.82058232510751        1.58529050948216       -0.04196935080066
C            6.45621867078105        0.21201962470544       -0.01958148077282
C            7.33183613839296       -0.76831447051079        0.47246776239220
C            6.98345256766667       -2.09149521402513        0.44814854087731
C            5.75571047757280       -2.47671319654617       -0.07655835280147
C            4.88405929111442       -1.53828511655773       -0.56272105699955
C            5.19963867138536       -0.17174933132999       -0.53560314068548
H           -0.01816464551858       -0.95231891233107       -1.30256611422654
H            1.19616244336520       -1.49210433816098       -2.45819344175329
H            0.49082733788095        0.10974451180211       -2.61206445618309
H            2.26179521727834       -0.79501244780393       -0.26835819328065
H            1.55669585069404        0.77965520025128       -0.42985415289240
H            2.87202317951668        1.24148745865421       -2.47313313293321
H            3.48431526082953       -0.37969173646157       -2.50444111746878
H            4.12254268433266        3.97942705790222       -1.98429692750605
H            0.03998353655683        3.02341121681809        2.38115346905732
H            0.28866315081460        1.80344136197478        4.48739770141149
H            0.28124364444415       -0.08426482212973        5.71221867274220
H            1.17733811367270        1.12503109739078        6.65189263015007
H            1.44402538679235       -0.59985644256369        6.92686892128854
H            4.38527823102513        0.03004745962484        5.26925039471603
H            3.55857385121995       -1.47676093946756        4.82703204092025
H            3.52675440186510       -0.89556609543051        6.49503021419101
H            3.94140158467052        0.11853529518116        3.05648736377189
H            3.65901731614385        1.31213931839825        0.95554810956206
H            6.24214786560806        3.56006127142486       -0.49954822908953
H            7.79625474675736        1.86920095445148        0.31306126163445
H            8.28684515238061       -0.46654731183489        0.86654597446816
H            7.66298783633695       -2.83642779259808        0.82837482235139
H            5.49040909695008       -3.52097699201059       -0.10165625589678
H            3.94633258550404       -1.86005283685751       -0.97655986441417
