97
 energy: -18.657989510025 gnorm: 0.000901533621 xtb: 6.5.0 (97a52f5)
C            1.58867374148258       -0.88172799574939        3.78138326345984
C            2.95203927271887       -0.62535051876140        3.16099308378262
C            3.22953139708900        0.85133498539593        2.92821559512087
N            4.54012638665031        1.07134820947853        2.33452407744060
C            4.83756457657168        0.82517867118663        0.98810010616978
O            4.06571972622224        0.46383051418007        0.12035927536732
C            6.27917037777646        1.08342030929555        0.84604628722121
C            7.08965622390108        1.05560412221537       -0.28042740270268
C            8.44778072241463        1.38913343361129       -0.13844982153417
C            8.99634791705726        1.59081170177884        1.16774119353255
C            8.13864222059500        1.69676654584953        2.27628403096598
C            6.78687416887983        1.43936116509733        2.09527464612735
C            5.68098737191010        1.42729143381582        3.06563718625241
O            5.74173381693434        1.67080612849355        4.25574556042165
C            8.67595144657765        2.09273563347869        3.62018252982272
C            9.94044667979141        2.96606848404554        3.49812483863279
C           10.92693790250797        2.35616790354345        2.54465463461179
C           12.28627173875362        2.43516534481520        2.77338926833913
C           13.21616736836385        1.79736326349008        1.95384958884197
C           14.65947691819617        1.98995493099092        2.16706971343439
C           15.19144486188223        2.13571077822826        3.45140204752247
C           16.53485913280044        2.34027249527945        3.64241437910215
C           17.41669391809159        2.41471363792824        2.55872555526079
N           18.79328700446882        2.62775607597478        2.75489070983202
C           19.38213057290451        2.65471819559330        4.09394613746453
C           19.70299192174362        2.84650215442262        1.63038670189481
C           16.88318878871079        2.26897998749154        1.27396503933128
C           15.54036057179505        2.06235396052839        1.08531842155868
C           12.73476612883035        0.99306704511188        0.89112907681779
O           13.59382072890727        0.22749961614952        0.06401039359928
C           14.21486155237235       -0.85084432650435        0.74115419326873
C           11.36377581561240        0.94168280577151        0.65745879812269
C           10.44927326728744        1.64581168281164        1.43005137348644
C            9.23283519414525        1.57740278273194       -1.37561668179280
C           10.29361803123406        2.47213680781109       -1.44060056714946
C           11.05534411969445        2.65228020438036       -2.59175095138194
O           12.14052855004087        3.53224714906746       -2.65195166705789
C           12.51461297771432        4.10861513179285       -1.41965564045415
C           10.70291734870652        1.91915503350157       -3.75327142681666
C           11.48936831735121        2.03402748996522       -4.99298201914995
C           10.88600320933815        1.91460150091053       -6.24875994799863
C           11.62490945066649        1.99306012828453       -7.40264622695543
C           13.00835857414395        2.19565303213789       -7.36345395500881
N           13.76604376279543        2.27537347133843       -8.54591663200380
C           13.16490362117649        2.04623496272720       -9.85982433841892
C           15.19298515491858        2.59665821514384       -8.51897976118972
C           13.61144314069557        2.31877315016995       -6.10772978920612
C           12.86986031762664        2.24049325277772       -4.95639402595716
C            9.59159720100275        1.07910998627747       -3.70081026694931
C            8.85136060272533        0.90766948516827       -2.54917080238107
C            7.60773289497952        0.06663705764734       -2.54118752310785
C            6.53192199690927        0.67418570580243       -1.62008349467263
H            1.40375886270723       -1.94631564565443        3.93817345882005
H            0.78856293810014       -0.49919955673817        3.14573059040175
H            1.49677649134507       -0.38604668061751        4.74905044821588
H            3.04358933344195       -1.15765632791895        2.20545786206645
H            3.74528500703563       -1.04109480923675        3.79534148165075
H            3.18073366680598        1.40798644542073        3.86907853637136
H            2.47544640857616        1.28663358578770        2.26561202338082
H            8.90015404281554        1.18600567899059        4.19312376846038
H            7.89292666036812        2.61671092223103        4.18168663491475
H           10.41155118301564        3.10654631801426        4.47868656038570
H            9.67304091289902        3.96795834857125        3.14331169140871
H           12.63767718002111        3.02677152926983        3.59911961760181
H           14.53461200879062        2.07020834366373        4.30123413922469
H           16.91686753326939        2.45452009663043        4.64103993597350
H           19.08149712436169        1.77051729044187        4.65270065927857
H           19.05401847326873        3.54415464740144        4.62824142235722
H           20.46891000939381        2.66508855454474        4.04310570867960
H           19.81709975730356        1.92755881326331        1.05864116194177
H           20.68526802918183        3.16093599447556        1.97691501654713
H           19.31170599435671        3.62618816092586        0.97970900841665
H           17.53840714350790        2.30913788034196        0.42235005094291
H           15.14560180536645        1.94709087532830        0.09060061020871
H           14.78008824598641       -1.44195855078902        0.01962807994674
H           13.45169112725778       -1.47800300431006        1.20436772387311
H           14.89143917973352       -0.47529589236278        1.50923405661302
H           11.01453098017210        0.32804510084420       -0.15124792286338
H           10.52590107572238        3.04328790252158       -0.56328040327781
H           13.41675383352742        4.70238712090470       -1.57187073585864
H           12.72871404290264        3.32527954623927       -0.69130380663649
H           11.72130177074962        4.76305570780145       -1.05606413146328
H            9.82032468817787        1.77792520158153       -6.30654382572111
H           11.13220530783080        1.90727187815822       -8.35447290291324
H           12.62534205029343        1.10114709643360       -9.86509734130187
H           13.92557877773383        2.00258462749084      -10.63652312016313
H           12.47416977937711        2.85237870681680      -10.09956150589588
H           15.35941885905163        3.51106582063732       -7.95279763613662
H           15.57933813933841        2.74973489944662       -9.52445858568420
H           15.74945515039595        1.78371943005353       -8.05657882259776
H           14.67392324901284        2.47102677887608       -6.04465111789199
H           13.35059220669778        2.33744928050562       -3.99871326487461
H            9.30988029146617        0.52970929444558       -4.58053742545542
H            7.86289328664301       -0.94483880627205       -2.20481782733783
H            7.22707394883632       -0.04078522729602       -3.56431396990815
H            5.70096919789483       -0.02732647681337       -1.47732222726750
H            6.09569553964882        1.56380617714887       -2.08810843931326
