74
 energy: -15.677599340722 gnorm: 0.000699874808 xtb: 6.5.0 (97a52f5)
C            0.95737818440947        0.78029525881429        0.04292210450076
C            2.47491796909514        0.79163560527415       -0.05447498674190
C            3.15610591019052        0.81021584675861        1.30898076965664
N            4.63579004349441        0.83083284714527        1.20595942897465
C            5.25379809334736        2.07635395411505        1.15812320739656
C            4.50542582679239        3.26959326272685        1.02304154325992
C            5.10211540858250        4.49582253760024        0.99706715904000
C            6.49555896611395        4.62338274536312        1.09924954356719
C            7.11437936506995        5.88171750013393        1.08595598888452
C            7.67524268532525        6.96954651392629        1.09615070910137
C            8.33076536810196        8.20129977938851        1.12520849783086
C            9.72830953561747        8.29169553322435        1.15769234808678
C           10.72056735250359        7.27686379604867        1.15567755939806
C           11.94959921914194        7.89313889272191        1.19764002211388
C           11.75177006569520        9.28854297583921        1.22783314339549
N           10.43703633746845        9.48964234969801        1.20326027270490
B            9.75928428967448       10.86761618027456        1.23696907240123
F           10.08495231097428       11.50295230473234        2.42570718463028
F           10.16727022567932       11.60260862154101        0.13447880292984
N            8.23727919113035       10.66905006227177        1.17535265778000
C            7.34228441566271       11.65322122551247        1.17249538079022
C            6.07112793769519       11.04596630532013        1.12409784160974
C            6.23808849857837        9.68082168187440        1.09938570450506
C            7.63193932073237        9.41541106783736        1.13109656196444
C            7.24491919563250        3.46938634251898        1.21603236329349
C            6.65605277303639        2.20924890420572        1.24277600477259
S            7.75147932427083        0.87872304171838        1.39576739943036
C            6.69618686211531       -0.48605139475281        1.26237097753152
C            7.32297497255090       -1.72812331155441        1.25093256473371
C            6.60787849103968       -2.90520344437905        1.15131324075655
C            7.26027073532788       -4.14655468024345        1.14789046726274
C            7.82797347983816       -5.23085801739949        1.15132287968230
C            8.46571718810425       -6.47219087690011        1.16290939581306
C            7.74445719660885       -7.67090606143291        1.23518156731125
C            6.34656845244353       -7.90569702974120        1.30715110067475
C            6.15317529046099       -9.26630693791664        1.36506562771406
C            7.41145610765283       -9.90083463746613        1.33140695914091
N            8.32486329195351       -8.93671771473232        1.25471267770018
B            9.84204626363312       -9.16796467663152        1.18845979074214
F           10.25111963004938       -9.83138906059232        2.33508502582932
F           10.14028015916019       -9.89114455453019        0.04372723403528
N           10.54497449051843       -7.80395772825900        1.11910687811809
C           11.86262826358890       -7.63133210537376        1.05984502662512
C           12.08809219717204       -6.24080899047516        1.00794168845995
C           10.87227073607956       -5.59812648537375        1.03755488805980
C            9.86057383078314       -6.59100084084632        1.10955429927682
C            5.21093886814291       -2.82087145820332        1.05154309572177
C            4.57773081250591       -1.61288056012586        1.06227641986422
C            5.29049609373252       -0.39633017623454        1.17818621345943
H            0.48495281922341        0.77430986634028       -0.94107086310790
H            0.59026367069471        1.65715695490940        0.57805832737828
H            0.60303894889827       -0.09883916892430        0.58289094566549
H            2.81138629411244        1.65605560881671       -0.63997425986379
H            2.82562093870302       -0.07803326400998       -0.62363217998432
H            2.84900277935487       -0.04704499897011        1.91349300053685
H            2.82602378065052        1.66708778604083        1.90176739555106
H            3.43836575353269        3.22100575526445        0.91087400343653
H            4.50820228298339        5.38775056977792        0.89359219049177
H           10.53403717963361        6.21667441568653        1.12541550851929
H           12.90553372299232        7.39397828676319        1.20654113208694
H           12.49705769508777       10.06643167346031        1.26517828072935
H            7.57755467201537       12.70469601966813        1.20368237675621
H            5.12674063485421       11.56653677068313        1.11018880215469
H            5.45850118480595        8.93878445444656        1.06294464665477
H            8.31644225586173        3.54481430684560        1.29227157187157
H            8.39657325398240       -1.77014782447970        1.32329821764188
H            5.58232848189946       -7.14700985070734        1.31485720732130
H            5.19945475539395       -9.76595937575231        1.42682348553319
H            7.62549579309364      -10.95693079925331        1.35785400825071
H           12.59161921056711       -8.42540336939634        1.05489360352706
H           13.05335021360217       -5.76281834562465        0.95462570842219
H           10.70719738046640       -4.53427242030619        1.01185279901383
H            4.64374574128717       -3.73145113661237        0.96174878545642
H            3.50926932882131       -1.59911630803381        0.95352100217639
