70
 energy: -14.335690943776 gnorm: 0.000176814216 xtb: 6.5.0 (97a52f5)
C            1.06387967176186        0.88991407830127        0.28676136352034
C            2.57299082930941        0.71357889882521        0.35107230228691
C            3.32764774734263        1.75696925527309       -0.46640693707558
N            4.80120953882562        1.55832914526543       -0.40417938810229
C            5.47489695586736        1.18776014351169       -1.56879366391645
C            4.95942950392325        1.47858176950747       -2.85511009087755
C            5.62286954776623        1.12500114599751       -3.99107497655650
C            6.85585850383439        0.44679580079474       -3.93476581990151
C            7.58805673371188        0.08290117204311       -5.15880450852697
C            7.80289473324793        1.00367793305315       -6.20080523998204
C            7.45040902787997        2.37226083639410       -6.31700136711993
C            7.93964890935855        2.83353493355990       -7.51833149592489
C            8.60543705750604        1.77536332116388       -8.16602223389783
N            8.51088730599213        0.71644096493405       -7.36473539373628
B            9.13982954423779       -0.65250338880488       -7.65893360528411
F            8.55796741518055       -1.18477820067158       -8.79940171684044
F           10.51035933096505       -0.50024377017239       -7.80511632035162
N            8.86128491109495       -1.58318934366339       -6.47048115605821
C            9.25125406258117       -2.85419590106577       -6.40270317300327
C            8.77437161844810       -3.35886391405565       -5.17768730244887
C            8.09486420342636       -2.35461675121942       -4.52555514937982
C            8.14299980946250       -1.19659208006599       -5.34223139865480
C            7.37719537137111        0.16312419333852       -2.68114802496442
C            6.72712934349804        0.53654695008893       -1.51382157671206
S            7.54554297103851        0.15051593620807       -0.03594028768791
C            6.66783325710733        1.10619117420480        1.11278624959833
C            7.26456436631527        1.27353281931054        2.35386949948869
C            6.66440033301022        2.00713679515310        3.36719484741036
C            7.33988814040955        2.21218281685558        4.65711279953111
C            6.65456095829453        2.13948523329068        5.88449015381373
C            5.30432843686593        1.82193167242173        6.18176418914915
C            5.14944473498422        1.86894931461539        7.54895599008480
C            6.38799685121898        2.20417904236564        8.12779492819169
N            7.25121796570853        2.35015462401942        7.12516431186390
B            8.73927221803862        2.67414129030790        7.31140840500399
F            8.86252938382291        3.91670687457977        7.91446585191901
F            9.33139953287083        1.67523360925021        8.06909111144750
N            9.40182379430972        2.71858882417620        5.92854373310860
C           10.68462492606478        3.00898308476447        5.72299643822213
C           10.88151135324574        3.00625234673948        4.32927230061705
C            9.68395703546078        2.70769610332092        3.71975138723319
C            8.71430310546945        2.50776695867899        4.73604516167290
C            5.40010605481534        2.56979904297243        3.10221269731513
C            4.79507528617014        2.40752947450121        1.89285293606500
C            5.40617555495164        1.67902586970980        0.84527482588206
H            0.53875158106775        0.13329708067853        0.87295188729308
H            0.70210012468566        0.81939088771328       -0.74007904369144
H            0.76504017225305        1.86733497779679        0.66821290476608
H            2.85459591158629       -0.28543480618465       -0.00569214943562
H            2.91293228177183        0.74270460468767        1.39308799131158
H            3.08710161938938        2.77282161187659       -0.14370257861132
H            2.98078759811836        1.69533123559814       -1.49782530243646
H            4.05724284885794        2.05355946850737       -2.95150124910379
H            5.20452251112186        1.35442182011844       -4.95576528469880
H            6.91959109508460        2.95207236668263       -5.58114470992771
H            7.84284167196451        3.83946131203948       -7.89487115374915
H            9.11633982799975        1.79127604379317       -9.11504040418930
H            9.81423642544365       -3.37123235032542       -7.16273113670124
H            8.91076844526689       -4.36615320868689       -4.81739946237118
H            7.59479786991336       -2.43630801992941       -3.57544658696639
H            8.33226080280619       -0.32770077686381       -2.60775505580950
H            8.21547815784669        0.80373229264813        2.53527384447994
H            4.54323365459637        1.56036697654557        5.46655288780792
H            4.23676310800754        1.67148232042225        8.08846654172095
H            6.62713670909789        2.31604225581419        9.17289734759513
H           11.40504377620695        3.21810355708078        6.49706996088749
H           11.81139625915343        3.21671338772762        3.82518546410223
H            9.50763270086335        2.66519152841811        2.65851047458683
H            4.93153636281291        3.16997189891998        3.86243998208093
H            3.84688054730222        2.88291343516913        1.72201417465828
