45
 energy: -8.809521784222 gnorm: 0.000932352583 xtb: 6.5.0 (97a52f5)
C            1.03401376584677        0.00626115466469       -0.10125168581174
C            0.22105953809569        1.07829614933039       -0.14515667927421
C           -1.22845554566282        1.05173178512567       -0.15726631592968
C           -1.93306385551498       -0.15412356016481        0.04866751466627
N           -3.22211180332823       -0.28221078339421        0.04827210367603
C           -3.88764034078936        0.87730082010589       -0.17666293016460
C           -5.29650152094596        0.87267896782773       -0.21311785253793
C           -6.00352296171484        2.01864200520122       -0.43709631761055
C           -5.33564750591350        3.22658480314000       -0.63470123940852
C           -3.97278834717744        3.26905394738464       -0.60479121759618
C           -3.20693533849138        2.10564782075866       -0.37730405089331
N           -1.85891377233833        2.19377904598380       -0.36365459462809
C            2.48172130018601        0.05370573518425       -0.10234547172710
C            3.21055264793847       -1.13796381982899       -0.18355220162540
C            4.58157922328430       -1.13389332536714       -0.19810451105755
C            5.30213563534919        0.06473671261913       -0.12366310559738
N            6.71372102676189        0.07575183064677       -0.13859099497541
C            7.51232549055593       -1.07679799272982       -0.60819775584012
C            8.13515391487254       -1.82263252776753        0.57576563373732
C            8.98574402664301       -0.86107336964277        1.42396162087595
C            8.16498063083101        0.36783537784931        1.85642623779661
C            7.50790545894979        1.05000970052379        0.64852715942598
C            4.57197875566779        1.25680782900378       -0.03433606160543
C            3.20026487487266        1.25223300906050       -0.02598407359024
H            0.59475619059283       -0.97396664993228       -0.08964292723336
H            0.66065365102643        2.05565293106521       -0.20604702744227
H           -1.37106403744356       -1.05343363343656        0.23564685815766
H           -5.80733352923928       -0.06152207448998       -0.05924505266721
H           -7.08060644396374        1.99196241977227       -0.46183578466026
H           -5.90039553832310        4.12698694668702       -0.81372717162840
H           -3.45259252220560        4.19830683833363       -0.75805175571029
H            2.67703212109631       -2.07173196686330       -0.23600186913420
H            5.11311376165067       -2.06769067047919       -0.23498647071057
H            8.29832528611131       -0.69091518230554       -1.26553683763212
H            6.89639398275859       -1.72980951575815       -1.23436608969780
H            8.73108139990648       -2.67909725181433        0.23042263503929
H            7.33615957463336       -2.24539831798268        1.19671301443951
H            9.85419097108786       -0.53183868940525        0.84031395968476
H            9.40032879009266       -1.37967274613433        2.29992609076348
H            8.79264940499646        1.08025390617241        2.40951914499656
H            7.38410837169489        0.05316083364469        2.55956616237197
H            8.26670312123614        1.48370319614496       -0.01009920053929
H            6.86805738648537        1.87714179465014        0.96906597550074
H            5.09890536190644        2.19377270184106       -0.01071460766520
H            2.67120739793083        2.18564381477689        0.04238774345201
