54
 energy: -10.158179078285 gnorm: 0.000640431574 xtb: 6.5.0 (97a52f5)
C            1.88381344371857       -1.11488661118034       -0.95826649394285
C            3.27885020540064       -0.75997558715623       -0.46893633256350
C            3.26646326559429        0.32989361997459        0.59958531819757
N            4.61502431759165        0.69534224790655        1.07882412530173
C            5.16694635574474       -0.04153658152957        2.16843727902226
C            4.63609795659334       -1.27708997248026        2.54368784750892
C            5.19094077078732       -2.02170221089990        3.56268575376140
C            6.29311705223190       -1.55094768521998        4.24044264298007
C            6.82655755666962       -0.32313912113077        3.89986222750404
C            6.27285373725811        0.43538922054178        2.88672743592771
S            7.00016479945067        2.01518055565918        2.59458014645158
C            6.44146654009515        2.34198316448205        0.95350202717173
C            7.14132754089670        3.29165668260912        0.24572685162203
C            6.76083894323280        3.68510537870512       -1.04345766529262
C            7.53656228093441        4.68845513986428       -1.75016148605117
C            7.12648668858634        5.45200899089858       -2.79035599931798
C            5.76476854975510        5.54997206614302       -3.32110812341206
C            5.56550690704511        5.44488006926075       -4.66109478868807
C            4.25870443919952        5.50127801934679       -5.25295870123887
O            4.15629374026693        5.42803979323687       -6.47456440461117
O            3.15920922450737        5.62052050344212       -4.42567062039469
C            3.32293739546494        5.71365465176539       -3.04046722650492
C            2.10702240908603        5.75265600082870       -2.32127176239435
C            1.86295707059263        5.53307214474264       -1.01965889048356
C            2.67010210203458        5.04137614235675        0.02034363553128
C            3.68079826901543        1.16437109767765        5.53004161056022
C            4.80008719293983        6.18735694258047       -1.18485831996647
C            4.61502306423100        5.78978929489795       -2.46475321992825
C            5.64829762097828        3.05383981057312       -1.60117301038206
C            4.94681511836106        2.10214994382507       -0.90353551565610
C            5.32399359463097        1.70827486209661        0.38500519466127
H            1.90335052847783       -1.89360488911853       -1.72340628425546
H            1.38391657131849       -0.24505687155813       -1.38730626985375
H            1.25867280474608       -1.47410298096051       -0.13921955879184
H            3.90638718837215       -0.44508601422013       -1.31110587359247
H            3.78253199523757       -1.65304679883454       -0.08052209625563
H            2.66171034644772        0.02347726422436        1.45755454324422
H            2.77366229113503        1.23136711255935        0.22502989022000
H            3.77896735030262       -1.66815227397593        2.02782259818123
H            4.76426892269382       -2.97527925630923        3.82747346727151
H            6.73201887822681       -2.13178611469545        5.03486939451491
H            7.67968634343955        0.06482786322488        4.43201785817960
H            7.99216678264493        3.76100237160667        0.70862653287771
H            8.55395327999391        4.80696166386783       -1.41393730669658
H            7.86914295446476        6.05513676631839       -3.29070181060276
H            6.40484030680218        5.29645952784263       -5.31351253223445
H            1.23596630850653        5.90601439384173       -2.93725994870904
H            3.06296048483008        4.06725096810372       -0.19396414075882
H            2.15677074875932        5.02439772032282        0.96091145292164
H            5.71044009065123        8.93001387889205        2.47755096660880
H            4.30554572647674        0.70708936140485        4.86180676485517
H            5.74374075928817        6.31331223355303       -0.74508136427181
H            5.34691472029972        3.30981266548811       -2.60076021034909
H            4.09341646236884        1.64685283498446       -1.37061560444125
