53
 energy: -10.918825909731 gnorm: 0.000705537697 xtb: 6.5.0 (97a52f5)
C            1.01238704746614       -0.57894269428836       -0.61012270424659
C            2.53215539905290       -0.62243452431716       -0.63416247412410
C            3.11960675244992       -1.38084913297860        0.55180753413337
N            4.60441233407237       -1.41923744620990        0.52525350668102
C            5.29289403584021       -0.18809635878374        0.52556624500218
C            4.70361613729653        0.96904324299372        1.06209323264757
C            5.36505106085818        2.17022495223666        1.07318822000873
C            6.64442528357203        2.26527265634464        0.55031277413333
C            7.24797325110728        1.14830655677334        0.02214568239145
C            6.59310881840976       -0.07571450848120        0.00282260895708
S            7.44504742515210       -1.42003566511093       -0.71818810986061
C            6.54646223201953       -2.78146737706138       -0.09284389625675
C            7.16414260401845       -4.01847048049595       -0.16430339901483
C            6.54435494303029       -5.17182835632378        0.29726856737528
C            7.18862290007924       -6.41081685217320        0.23185312768915
C            7.74661660417159       -7.50321398064144        0.20513187926271
C            8.37134772152806       -8.74268241434742        0.20493891792215
C            7.63958927022077       -9.94259496454966        0.22341856476436
C            6.24036811239754      -10.16828037116640        0.22918523932645
C            6.03591084400986      -11.53120165467885        0.24963759011524
C            7.28858675545576      -12.17091185429447        0.25794825505264
N            8.21171907413291      -11.20847786791155        0.24186361925211
B            9.73042279392366      -11.44827948608847        0.25955823335713
F           10.07193681010594      -12.10053209159674        1.43586545567764
F           10.08827227809176      -12.18649533216424       -0.85938408217884
N           10.44406273648893      -10.08709223333821        0.21557530114456
C           11.76744961591911       -9.92236282142389        0.20767211638400
C           12.00297533193784       -8.53580407855337        0.18199223973391
C           10.78791354095156       -7.88518353996933        0.17601397977996
C            9.77077760648691       -8.87196641317873        0.19693949459916
C            5.26452233232069       -5.05438921283069        0.85035518686463
C            4.63849853353493       -3.84006397173514        0.92413258573955
C            5.24951058576354       -2.66449903526128        0.44501654279438
H            0.60516264359081       -0.02576446421067       -1.45897195245117
H            0.64651803029960       -0.10114699284797        0.30002838085207
H            0.58881154125292       -1.58407661985379       -0.63889040714692
H            2.93805772246599        0.39589511540064       -0.66100026416247
H            2.88554924305661       -1.08767273958073       -1.56339046661894
H            2.72328507726664       -2.39733663566492        0.53619870978238
H            2.79125662134880       -0.95250982342407        1.50216333947184
H            3.72278646303535        0.90865810512684        1.49740500475400
H            4.89222092393510        3.04271022793874        1.49332603563392
H            7.16380762972786        3.20922577304377        0.55909588937190
H            8.24265717297767        1.21095029243514       -0.38786358286087
H            8.15193439762692       -4.08574688978313       -0.58665992921505
H            5.48123183074052       -9.40445682481008        0.21873559482591
H            5.07763891192778      -12.02577269206615        0.25907242039990
H            7.49482313573250      -13.22861920756740        0.27752101364989
H           12.49225244587154      -10.71997381683118        0.22179423258280
H           12.97218056125204       -8.06307651226226        0.17066035219892
H           10.62931281908350       -6.82009360909845        0.15881616932653
H            4.78304736152913       -5.93847694536984        1.23212628800541
H            3.68555469544870       -3.78042842899071        1.41749113649636
