51
 energy: -10.249933843996 gnorm: 0.000237019834 xtb: 6.5.0 (97a52f5)
C            1.22291567160900        0.45596400527270       -0.61971118915741
C            2.73042348891600        0.44427674257891       -0.42178212516351
C            3.13087061235573        0.53205272074602        1.04659716974163
N            4.59855090107043        0.52861174017217        1.24717924750310
C            5.22838166657696       -0.72102570303736        1.41245631236432
C            4.54648531774065       -1.91964284406670        1.13888201132986
C            5.15102125662193       -3.14265463245584        1.28046463102756
C            6.46659188238728       -3.22383089468098        1.70299603083856
C            7.16090907987761       -2.07029340364375        1.97945075954899
C            6.56419824394197       -0.82345183420561        1.84171957402455
S            7.56345282627656        0.54887091061770        2.24737997943007
C            6.58926424381594        1.88580651948986        1.69393481409749
C            7.20552395870568        3.12090566765420        1.71486479120072
C            6.55405895330913        4.28677863432881        1.30727964102709
C            7.22775947668229        5.58616171153751        1.34185008397027
C            6.55160775829074        6.77668125943274        1.69736294933337
C            5.22073528261321        6.99930307218812        2.13177138346920
C            5.07471950345326        8.34734589223334        2.38388762889906
C            6.30083603768962        8.98158597919132        2.12759435621939
N            7.14924603635000        8.02963843010092        1.73417386881564
B            8.63044670764161        8.28221175360515        1.42201638809734
F            8.72883824404205        9.13937470448284        0.33484141032169
F            9.24996313827624        8.80699582210993        2.54776195859246
N            9.28276351057506        6.93934478558785        1.06599318889377
C           10.55965669431897        6.80801405855165        0.70122744892471
C           10.75178540741556        5.45274122323955        0.38868370284619
C            9.55791313837847        4.78871699145243        0.57763305677373
C            8.59951395883147        5.73093530153026        1.02846183245223
C            5.22670453533424        4.15530760831787        0.86250953304674
C            4.60123890952342        2.94243477296047        0.84667159769506
C            5.25183425310920        1.76121620611991        1.26324092313674
H            0.94748074811628        0.39196590459722       -1.67416220556868
H            0.78032229740555        1.36920898657424       -0.21910197511129
H            0.75167970710306       -0.38285583030305       -0.10519108631846
H            3.19291742922307        1.26956275949460       -0.97668173117477
H            3.16505918688156       -0.45937023405376       -0.86606075989090
H            2.69119993777275       -0.28781719824743        1.62095136977340
H            2.71142150731192        1.42827247813882        1.51177941893029
H            3.53148507075323       -1.88924844112342        0.78867668736347
H            4.60340426615312       -4.04401405412770        1.05851527524110
H            6.94246777341529       -4.18425027880534        1.81318523202195
H            8.18547165131000       -2.12005615757244        2.31079007237858
H            8.20970511643452        3.18500950531783        2.09549316888485
H            4.46678437498409        6.24577566956378        2.28246115389260
H            4.17670323222956        8.83162216096217        2.73324714543761
H            6.54587067514471       10.02550468162059        2.23639943549749
H           11.27606434891007        7.61151102764404        0.64799319558394
H           11.67292933329858        5.01137780627995        0.04271328132295
H            9.37828338393363        3.74718098103820        0.37312680438484
H            4.71635840656116        5.02560813601515        0.48918714001757
H            3.59451085733550        2.89198489556018        0.47533541802546
