46
 energy: -8.884027983239 gnorm: 0.000776196987 xtb: 6.5.0 (97a52f5)
C            1.21995754742857       -0.41517988689104        0.05535082887984
C            2.60271695857335        0.13769549199093       -0.24862669919592
C            3.22508421285099        0.86015136563328        0.93940132619030
O            4.50897306441318        1.39265913975171        0.62469271638511
C            5.11335075874930        2.11849488870857        1.64857336835526
C            6.34555404438197        2.72371012350955        1.36993218639463
C            7.00354732097043        3.46542265391017        2.31455405610999
C            6.47044562939038        3.63976715356298        3.59705551745117
C            7.18827651542293        4.43542466407834        4.56615437809112
C            6.82402832721074        4.63451765402568        5.85023002347753
C            7.57032005076239        5.44285873025769        6.75421005899516
C            7.22222207805770        5.63004613423105        8.04568234802773
C            7.96276430489520        6.45009772623489        8.94538548693213
C            7.61662167982483        6.62614045429751       10.23623229946759
C            8.31639976330251        7.45672387493852       11.19536930317623
C            7.87329673098515        7.50234231175645       12.52106557184846
C            8.50918907735437        8.28749530836214       13.45273976303846
C            9.60418989413698        9.05154150351287       13.09400965634365
N           10.27783301321502        9.88903813203241       14.08802803924912
O            9.89732333214309        9.83426987031070       15.26933452169918
O           11.20634186115864       10.62538199699521       13.71554739506601
C           10.05633899926232        9.01816192959834       11.78777845496341
C            9.42613064103804        8.23492076168825       10.84992288538816
C            5.24177236338231        3.03021936877329        3.87964392077760
C            4.58046200318997        2.29114342635542        2.93301338796487
H            0.78636767174424       -0.92715661023673       -0.80589207998243
H            0.53234512094064        0.38093823492713        0.34475688204517
H            1.25304441424363       -1.12793113222636        0.88063271427927
H            2.56098378939817        0.82878843965941       -1.09940547576941
H            3.27740194205028       -0.66606891126160       -0.56778782877914
H            3.33662615090602        0.17442955183925        1.78682610154700
H            2.58225679410876        1.68843846225324        1.25803107058919
H            6.76264254961970        2.59488133153136        0.38698026003869
H            7.94703808844915        3.92449606705435        2.07418098650062
H            8.09361178827307        4.90646011811798        4.22557066312227
H            5.93355009940584        4.16571498707128        6.22634644079235
H            8.45513813874003        5.92921041111985        6.38245784139434
H            6.33959158530243        5.14078908160985        8.41906783344457
H            8.83561327444826        6.94390030797265        8.55991264297148
H            6.74468527859545        6.10815188669860       10.59521174698191
H            7.02092074489489        6.91134280786960       12.80904210612036
H            8.16550637878129        8.31982657126068       14.47241891941562
H           10.90802025930255        9.61954079488539       11.51947267379236
H            9.78889381110907        8.22976076261389        9.83792042154333
H            4.80261723363257        3.15005921555560        4.85353248853630
H            3.63792471394950        1.83961284405716        3.18294279632962
