43
 energy: -8.416772502344 gnorm: 0.000679793275 xtb: 6.5.0 (97a52f5)
C            1.63794890946295        0.47865622673005       -0.73439632031794
C            3.14391605735665        0.41303081542526       -0.93530966505126
C            3.54242954301523        0.36648607210030       -2.40147923981386
S            5.31092261430430        0.35043497345710       -2.62068815801577
C            5.52782507210183        1.88706568162365       -3.44451653997646
C            6.15797176466956        2.04353000513804       -4.70337661532013
C            6.18122516894041        3.37456198797073       -5.02791386778590
C            5.56165598673744        4.09485200662409       -3.96556573065794
N            5.17941668171339        3.13698672825540       -3.04430378597539
B            4.49496600012424        3.51663843553986       -1.71770670128990
F            5.22281182369446        2.94152149082425       -0.68880787529239
F            3.17822754683977        3.08714860353300       -1.76181420384390
N            4.47210451851584        5.04373019206201       -1.53147542271142
C            3.95472666358995        5.73359458711433       -0.47905525404889
S            3.25181888350877        5.26160394583611        1.05336912767558
C            3.24978946247028        3.56763618989613        1.24215193561981
N            3.20155880265334        2.43538366556970        1.48347979885189
C            4.05333678787263        7.10105646990065       -0.83382120006771
C            4.60895726067334        7.20641234214220       -2.08005422683782
C            4.88766629435090        5.89054533334401       -2.54570693889625
C            5.42438295705151        5.47879979320913       -3.77751399449880
C            5.84827979140228        6.44561476650628       -4.80787174420024
C            5.46800371506873        6.28328512501088       -6.14189565946345
C            5.85961287443239        7.18676615182792       -7.10281385163665
C            6.63973959970391        8.27161301013476       -6.75697068716456
C            7.02976742732648        8.44888861041905       -5.44492195160653
C            6.64142295763668        7.54760822117067       -4.48059525428410
H            1.37021605837608        0.51547355593856        0.32302851296223
H            1.14099926421102       -0.38744814354934       -1.17377554774267
H            1.22265023430635        1.36989376338902       -1.20781142679346
H            3.56550301091545       -0.45652908702792       -0.41451326526472
H            3.61945578682555        1.28809688329012       -0.46952966379604
H            3.13567426041310        1.22947916553695       -2.93444213656130
H            3.12854322937896       -0.52106705160178       -2.88650624344416
H            6.56172960259663        1.23885297312057       -5.29544129741556
H            6.62572967098720        3.80679973135473       -5.90788979124699
H            3.72180373930009        7.92159564536164       -0.21809710734095
H            4.77468021844804        8.11911564195395       -2.62620183046250
H            4.84450919851554        5.44750683596736       -6.40823577771641
H            5.55434475869990        7.04899694071476       -8.12711511277723
H            6.94380514439364        8.97931861132751       -7.51062636640718
H            7.64174519416323        9.29409636671088       -5.17563267340054
H            6.96559546320187        7.67327673607467       -3.46219624602206
