28
 energy: -6.128037202667 gnorm: 0.000289782289 xtb: 6.5.0 (97a52f5)
C            0.97369634252760       -0.11645665430928       -0.16117164072266
C            0.16701213856182       -1.09269228927933        0.28674879880198
C           -1.28196179077373       -1.09104029714275        0.22878402465300
C           -1.97810731255302       -0.10853093598893       -0.50533563296762
N           -3.26587868599652       -0.02592127730390       -0.61354492115219
C           -3.93606115373118       -0.99201695813342        0.05821640128919
C           -5.34402735116139       -1.01060179101822        0.02309511286487
C           -6.05523482873773       -1.96810158004330        0.68494099946422
C           -5.39266709446248       -2.95470471813553        1.41395906400311
C           -4.03055242444243       -2.96819507534691        1.46835163141511
C           -3.26206301187476       -1.99476560823185        0.79754707621712
N           -1.91533896742749       -2.04625298175343        0.88031588433499
C            2.42475076749066       -0.12416329382225       -0.10492058993107
C            3.13018103881482       -1.26844538718668        0.27275632413524
N            4.43748631334338       -1.34925076264871        0.34276458537858
C            5.04123861247706       -0.22460658815040        0.01655578061989
C            4.36992454881987        0.91303108897648       -0.36322858091663
N            3.06033270173892        1.00016972204114       -0.43854143002089
H            0.53682242237357        0.77191074225681       -0.57598418950437
H            0.60315916556005       -1.95109725297453        0.76133044795326
H           -1.41463880173820        0.63660752072100       -1.04103015950571
H           -5.84948248567178       -0.24725837415235       -0.54196679390569
H           -7.13213515358559       -1.96413737665152        0.64579278871376
H           -5.96114584926447       -3.70737253277633        1.93518436157206
H           -3.51320481382444       -3.72640982374004        2.02963080621440
H            2.58772801151047       -2.16689448770923        0.51625329590745
H            6.12119922172465       -0.22242514962721        0.05573261233688
H            4.92931844030150        1.80085212213061       -0.61960605724740
