72
 energy: -12.744499358385 gnorm: 0.000532166732 xtb: 6.5.0 (97a52f5)
C            1.16949125659287       -0.51515942242345        0.71429300734847
C            2.65042650722278       -0.16796482520479        0.70548893239348
C            3.10003737005029        0.46755515940110       -0.59758814555700
Si           4.94261560904858        0.86893862004938       -0.69134817212246
C            5.64081923630231        1.23314189177902        1.02032441687270
C            7.10674136738178        1.62205909110350        0.99861602334338
C            7.63832223384717        1.98804566316873        2.37559711227853
C            5.85113701326533       -0.63073902361162       -1.39028470667014
C            5.86919185027576       -1.85275125255266       -0.49074835344110
C            6.64282791282055       -3.01513449651167       -1.09479773091462
C            5.20934339859286        2.34212172842585       -1.80529579403863
C            5.69644263233461        2.08716539701429       -3.06616432604096
C            6.00246897619374        3.12037352790464       -3.95689368252492
C            6.51232869149325        2.87321560175101       -5.26899730597340
C            6.80124731291738        3.89045870340529       -6.11215204710430
C            6.60690336801701        5.25331255801117       -5.72280474999823
C            6.89577926040628        6.32269617950203       -6.57283357599214
C            6.69433446253081        7.62493483177871       -6.16276105578375
C            6.20304798030349        7.90030923845431       -4.90300543334782
C            5.89878812637636        6.86721740845324       -4.01411037518902
C            5.38991817900521        7.11038065641514       -2.70026760466372
C            5.10530688827382        6.08933152942927       -1.86120590504904
C            5.29710279060996        4.72781627968274       -2.24631297671612
C            4.99152436157355        3.65508793666467       -1.38178415133901
C            4.42191850940008        3.95870987675654       -0.03740815100168
O            5.13793772204693        4.39946162033778        0.85182194789844
N            3.05777684966631        3.75714395568661        0.11225677890660
C            2.30075365255673        4.28841357700550        1.27169179358323
C            2.85690501833039        3.69648988471197        2.56969024667516
C            2.42805333178802        5.81425107598467        1.29384348729434
C            0.82546742799935        3.89441894782882        1.12461908009758
C            5.80151629762401        4.45563284763297       -3.53947108496644
C            6.10350509596620        5.52866413664780       -4.42782169073848
H            0.85714030000486       -0.95718878086443        1.66329762833805
H            0.92679243702219       -1.22753562257757       -0.07653296340906
H            0.55492774838493        0.37114413792130        0.54671818901185
H            3.24889719656086       -1.06722935791577        0.90009272935649
H            2.88426657995754        0.50869191386699        1.53750152610749
H            2.56063017143257        1.39810248380207       -0.77636409829897
H            2.88086106064789       -0.18537061906275       -1.44453452922440
H            5.47614374153705        0.35663711555449        1.64881812657296
H            5.03702885996130        2.03740887469861        1.44058040857031
H            7.24367388106652        2.46332396288521        0.30563307584915
H            7.69592652825647        0.80155137213677        0.56750699221836
H            7.08409622537589        2.82821331267503        2.79816779359969
H            8.69314015064471        2.27108199964453        2.34759910182409
H            7.53847155954709        1.15296951834018        3.07151419140735
H            6.86849759139993       -0.30291322217966       -1.61182956869006
H            5.38126415127137       -0.86978566880683       -2.34604258466996
H            4.83778531832510       -2.16075910872596       -0.27551904386116
H            6.29522296691882       -1.58224435558079        0.48442121410807
H            6.21057437232155       -3.32260001694725       -2.04896370695121
H            6.64888049538560       -3.88948040054348       -0.43980214594967
H            7.68192792592975       -2.73977999634023       -1.28551797492643
H            5.84929132303807        1.07149342202001       -3.38309654073727
H            6.66446929119134        1.85314028970908       -5.57734932935618
H            7.18506660139404        3.68635769886136       -7.09677436268839
H            7.27952386137833        6.11855534060957       -7.55762545891906
H            6.92348542103379        8.43637605212715       -6.83431326162575
H            6.04953969545848        8.91948964935351       -4.59246334374931
H            5.23834181318600        8.12883618709549       -2.38684556122424
H            4.73184158620108        6.29019280617461       -0.87299097267329
H            2.48217452049358        3.62368327623065       -0.71842245368493
H            3.90881725303331        3.95117185646022        2.68481447450979
H            2.77087078477403        2.61131947013978        2.56569263631880
H            2.31835492051849        4.07659145958828        3.43714292707951
H            3.47122025314341        6.10617568746818        1.40485581644476
H            1.86360747742143        6.24454400928420        2.12054690722509
H            2.05595131882677        6.24458163580198        0.36494173802049
H            0.72176441552370        2.81150833885003        1.07748688429674
H            0.40025841216209        4.31320946868605        0.21330752293571
H            0.23784109852479        4.25482690476646        1.96840220919755
