77
 energy: -16.595056185041 gnorm: 0.000294182626 xtb: 6.5.0 (97a52f5)
C            0.69895692025950        0.72331060053617        1.77408120986281
C            2.11624316457374        0.71755734110458        1.22556686706789
C            2.36996366841412       -0.43517361636372        0.25478156669912
C            3.76742727475087       -0.43519372064272       -0.29606700723151
C            4.05794531877154        0.29333318863986       -1.43943633485797
C            2.99875270235597        1.06663467401481       -2.15616181080078
O            3.08195241849499        2.27801554330894       -2.24390915683338
C            1.82900289629625        0.35918244137996       -2.74913185884547
C            0.58097420542408        0.86103231301665       -2.49171086073444
C           -0.56638564768452        0.23156871446751       -2.96625847819155
C           -0.49908280166593       -0.88758074562485       -3.75527001873536
C            0.77752373669336       -1.40624402125155       -4.10331024405519
C            0.89921511627784       -2.53227158532936       -4.97847189107164
C            2.15453625178089       -3.04892502797955       -5.21894905029144
C            3.29801176684978       -2.47083690774864       -4.67302708340125
C            3.20078925679967       -1.36677174148680       -3.88499737057769
C            1.94822807229584       -0.80291126851031       -3.57243719940068
C           -0.29634386181508       -3.06326050818680       -5.65934427356824
C           -0.18933350394400       -3.98325857191838       -6.70521490948071
C           -1.30120246734971       -4.43962345745638       -7.37584436438403
C           -2.54940811662584       -3.97723867401007       -7.03237424814748
C           -2.69834984314425       -3.04964116088452       -6.00614036889404
C           -1.57016976470465       -2.59711048109917       -5.30775010664880
C           -1.76579981735273       -1.63293739231273       -4.14890276315171
C           -2.97710341460275       -0.69062862483634       -4.41036243436538
C           -4.16201000169247       -1.42395185645822       -4.94160755294349
C           -4.01820320248944       -2.51919393372262       -5.68002595715787
C            5.39091614848163        0.34887847704911       -1.94070147837501
C            5.70701230821905        1.09760389545441       -3.10712195775776
C            6.95750569755482        1.11428021342702       -3.62047884828471
C            8.01268357966651        0.38781751681106       -2.99948737119313
C            9.31098201452984        0.39080676702152       -3.52390100293777
C           10.31265957275459       -0.30985221586683       -2.90414264190442
C           10.05828532949757       -1.02628019420938       -1.74649634520346
C            8.78979016071630       -1.06190163644175       -1.17886829354268
C            8.49916388893106       -1.79600699693512        0.05173707403787
C            9.47929534518725       -2.48597589408684        0.75658021206747
C            9.18553459229901       -3.16717855322048        1.92553681484685
C            7.90779890327493       -3.17809424794665        2.42197732775669
C            6.88135263644804       -2.50048091183444        1.75445379033836
C            5.54959895166501       -2.48915209347639        2.25710168765443
C            4.56321193174835       -1.83077404686858        1.60977885508743
C            4.80575811028042       -1.12015651201321        0.39463445668513
C            6.12208462356275       -1.09920320707834       -0.11474519377272
C            7.17197823130461       -1.80099513447727        0.56010061810017
C            6.41329036708389       -0.36577640353848       -1.29397072576131
C            7.74367257957663       -0.34839320689423       -1.82159272138282
H            0.53125111211925        1.54945660912944        2.46829078645164
H            0.47891722328822       -0.20351957173298        2.30658065175980
H           -0.03420535903705        0.81451624811557        0.97083673248637
H            2.84280251168466        0.66618600316916        2.04677079449151
H            2.33061209596854        1.66696933415896        0.71738565088504
H            1.64920621815979       -0.38771449923461       -0.56561520886684
H            2.15195230670422       -1.39429068336708        0.73477360183857
H            0.49652379965300        1.74374746705170       -1.88108921389203
H           -1.52590208604261        0.62383997121323       -2.68037902996304
H            2.26815619060716       -3.91539744282215       -5.84434842815302
H            4.26586494604867       -2.89261720606677       -4.89064834187886
H            4.09119487871812       -0.91531369556499       -3.49115282599232
H            0.77839915965678       -4.33295961060450       -7.01496151884173
H           -1.19298021545872       -5.14970280469361       -8.17962342877571
H           -3.42072514354871       -4.31842627240365       -7.56469640259349
H           -2.02940000861156       -2.25984809791101       -3.28134372181265
H           -2.67193289534219        0.07905072610163       -5.12775816603378
H           -3.25295943790759       -0.15856648434388       -3.49210119846254
H           -5.14920958889983       -1.05036175063858       -4.72234896422920
H           -4.88157804237073       -3.03078864135758       -6.06922648947147
H            4.92430535120272        1.66672854650490       -3.57686329856571
H            7.17357157757146        1.68482144828666       -4.50716537775325
H            9.51328097276152        0.95021929031274       -4.42103279527901
H           11.30735408515770       -0.30184812369301       -3.31935297628777
H           10.86625630494532       -1.56398274342459       -1.28534099271764
H           10.49206106212987       -2.49228657059211        0.39759664898603
H            9.96808627989440       -3.69047837123510        2.45044793173466
H            7.68256949582975       -3.70613174332780        3.33260706002676
H            5.34036482107085       -3.01517896818467        3.17268700693128
H            3.57571708418161       -1.82987949820779        2.03410295768342
