68
 energy: -13.190255019489 gnorm: 0.000893258183 xtb: 6.5.0 (97a52f5)
C            0.70602554720877        1.29066298296423       -2.63673875702499
C            2.10151408021883        0.94569126112562       -2.14131607113312
C            2.70519526540103       -0.26234572596187       -2.86056345226418
C            4.06650351824537       -0.60618893583136       -2.37013289463025
C            4.33889276554112       -1.33651653311179       -1.26290236202740
C            5.72984586683146       -1.50681631644217       -1.00989936058644
C            6.53344901310453       -0.89156931600240       -1.94357450023713
S            5.54850562493282       -0.09804281918934       -3.14226892022083
C            7.96461814005814       -0.92047572016027       -1.90092243020765
C            8.72777367478268       -0.27954706795799       -2.86944387755818
C           10.11614897783830       -0.30180294895549       -2.83582679174621
C           10.77376617906157       -0.99887691106319       -1.78582501000888
C           10.01058273880980       -1.63912890979189       -0.81721633323941
C            8.62245371906975       -1.61595205248000       -0.84985760322568
N            7.87310935490595       -2.25290112380608        0.11722298578995
B            6.44437963355908       -2.24627445056666        0.12233836482784
C            5.64730493850150       -2.94927033421099        1.26861082365600
C            4.97321769947155       -4.12998581929716        1.02851371797550
C            4.27558381923114       -4.74236125451738        2.04804698838662
C            4.25308557196865       -4.17378865989664        3.30774068137384
C            4.92865787302110       -2.99175436073874        3.54623287556958
C            5.62542400512196       -2.37980618125032        2.52588716370358
C           12.20461232851641       -1.03062894115401       -1.74408648889289
S           13.18712929137347       -1.83270927736643       -0.54926094586985
C           14.66960163684235       -1.32457787260710       -1.31856520394451
C           16.02837163146735       -1.65266967157090       -0.80996809794560
C           16.53263124305232       -0.64657935579313        0.22656248725166
C           17.92134508647160       -0.98178905877101        0.74738791453411
C           14.39970487686304       -0.58382654534288       -2.41983183695096
C           13.00905584120177       -0.41190010525146       -2.67451990463313
B           12.29536799848271        0.33725922948189       -3.80134905545630
C           13.09512393181907        1.05588604358317       -4.93647431084351
C           13.78736227846179        0.30999440220078       -5.86963046946313
C           14.49399896516664        0.94357063408119       -6.86976725649699
C           14.50692081495711        2.32408449433619       -6.93653550469763
C           13.81307618475937        3.06951594945817       -6.00197573307026
C           13.10749195305080        2.43472870222111       -5.00170137554982
N           10.86618600069102        0.33792342912002       -3.80083226336111
H            0.28731795207891        2.15431930069691       -2.11541723040122
H            0.01876742329467        0.45505113706520       -2.49248958867155
H            0.71220059465607        1.52183458571381       -3.70344063374250
H            2.08306321833731        0.74959463015595       -1.06116878635582
H            2.77162220070752        1.80717871351746       -2.26102582298036
H            2.75079891041478       -0.06875084340646       -3.93854339416827
H            2.04789186142565       -1.13232191658298       -2.74660888764819
H            3.57631305489204       -1.75082348217196       -0.62351470667142
H            8.22987682806477        0.24563773500305       -3.66253342225963
H           10.50838784785474       -2.16410475867024       -0.02389569482144
H            8.36871806243218       -2.73912667178389        0.85238422952173
H            5.00155020092704       -4.56033037636623        0.04224301078716
H            3.74891720177040       -5.66428710157752        1.86262782618380
H            3.70888488220075       -4.65327187719121        4.10501388761730
H            4.91157924540170       -2.54886922234934        4.52870055091769
H            6.15614985825289       -1.45863009073378        2.69441522846956
H           16.72953373904152       -1.70552995329574       -1.65144648564297
H           16.01427814107718       -2.65913047633653       -0.37536756884447
H           15.81641735071892       -0.59747531714905        1.05761743075462
H           16.52422262730913        0.35945705475721       -0.21383928359514
H           17.94030792881193       -1.96775506696129        1.21414335946689
H           18.26628246117017       -0.26030624601825        1.49073281482910
H           18.65319427429044       -0.99550434404934       -0.06158677149567
H           15.16357914595451       -0.15906385848344       -3.05074876370343
H           13.76713448955396       -0.76426175250876       -5.80416118362360
H           15.03451858262537        0.36306881354052       -7.59951489278856
H           15.05786793637138        2.82022879871750       -7.71886385276213
H           13.82322155897321        4.14598300060460       -6.05527019958420
H           12.56337435672370        3.00078658584435       -4.26550768629805
H           10.37122999463528        0.82071214056794       -4.53842067427062
