110
 energy: -22.466323165041 gnorm: 0.000715366975 xtb: 6.5.0 (97a52f5)
C            1.46721293723189        0.62227975078591        0.80012899478340
C            2.95827521794731        0.63244663249164        0.50245977847884
C            3.28552830052781        1.22073617867336       -0.87136813176989
C            4.75592706195029        1.21973851788937       -1.17187187713604
C            5.55913170489114        2.28029125302434       -0.77986912352291
C            6.91591008015507        2.26647279137479       -1.02660686990354
C            7.51112744503519        1.18545186678488       -1.66792931029875
C            8.89908592199026        1.16957920714436       -1.92111102171583
C           10.10141765278019        1.14857453007386       -2.14135069796906
C           11.48177273932560        1.12800712729220       -2.40906164091646
C           12.13248016567025       -0.09245983956835       -2.52890737281495
C           13.49134502048112       -0.19308912612886       -2.79397640939312
C           14.08603313972010       -1.46352953556478       -2.89217337104556
C           14.62486215694307       -2.55821280718930       -2.96823844178011
C           15.26118601109205       -3.81495420546297       -3.04856848544515
C           16.08445108658098       -4.13020397984268       -4.12425836383962
C           16.70756173925367       -5.35820144167914       -4.19916928689277
C           16.53266942386552       -6.30462796879609       -3.20053702285291
C           17.18385926877508       -7.65284966342905       -3.30210047197113
C           16.33760959284606       -8.66554723288246       -4.07593615790370
C           17.00055014407217      -10.02976687892327       -4.18207905758157
C           15.70401534007807       -5.99710188781242       -2.13174241181687
C           15.08021952610772       -4.76969364915868       -2.05363045641722
C           14.25125901709072        0.98811358278858       -2.95391350470984
C           15.64775735303862        0.95208227059877       -3.23224327104107
C           16.36738322708137        2.08865682211852       -3.37896706719586
C           15.76122628302421        3.37225551679673       -3.25996928175178
C           16.50556019166994        4.56550363220736       -3.40365718864045
C           17.88610259523509        4.53519194712351       -3.67025186868055
C           19.08650896164539        4.47769262132583       -3.89455811725597
C           20.47190108390731        4.38617001195671       -4.14645977923051
C           21.09815208318051        5.25663588489134       -5.03213996648849
C           22.45255800795448        5.16226641389926       -5.27468520193264
C           23.22237322452332        4.20097485284959       -4.63681842137532
C           24.68920142577425        4.07729141385569       -4.92955070035846
C           24.98243908881181        3.17799116580423       -6.13191386809043
C           26.46919815955433        3.04751692111817       -6.42255467399394
C           22.59893201581568        3.32485905844707       -3.76081352847857
C           21.24490024967611        3.41687322072987       -3.51618062819325
C           15.85874124620277        5.78653283058413       -3.26924240783362
C           14.50051139050238        5.88811867423619       -2.99937421329475
C           13.91664342428845        7.15981692973375       -2.85872933292711
C           13.40665878674565        8.26084566546485       -2.70957664993003
C           12.82612497278791        9.53145747883951       -2.50996866944326
C           11.58199574298638        9.84449544857544       -3.04711070179734
C           11.01805427978961       11.08659054119117       -2.84344888181541
C           11.67570256982314       12.04968416846510       -2.09221270400370
C           11.07776745729106       13.41207498267506       -1.89408377489039
C           11.58907686120336       14.44065678981832       -2.90476301442565
C           10.98231166830201       15.81989433838720       -2.70106928947436
C           12.92028541781185       11.74345146394732       -1.56291813807665
C           13.48709704787310       10.50287869455827       -1.76581691548640
C           13.73594345806758        4.70722303854571       -2.85691907349936
C           12.33870943628131        4.74278884981701       -2.58114960960590
C           11.61768701969813        3.60601434749770       -2.44002886387535
C           12.22382517734369        2.32228344788021       -2.55854916745142
C           13.61285626876861        2.24829890535912       -2.83317108793593
C           14.37233295591734        3.44684709488972       -2.98542722566713
C            6.70468247415971        0.11872684736985       -2.05023756884283
C            5.34820372152473        0.13552934624360       -1.80229014827754
H            1.24814725444734        0.20519333297538        1.78564040746265
H            0.92234155136811        0.02850701231128        0.06386138655160
H            1.05219649432202        1.63143743446270        0.77053480139787
H            3.36492496481838       -0.38568502237293        0.56439000582088
H            3.49578666048823        1.19890180936172        1.27440805653555
H            2.90092983474789        2.24496491065408       -0.93910722005480
H            2.75440420822443        0.66222859215382       -1.65078617669001
H            5.11068781283229        3.11871276853073       -0.27454459119798
H            7.53183640214654        3.09541407652146       -0.72170596468318
H           11.56108904678924       -0.99621460234828       -2.40949935084894
H           16.22776892084599       -3.40021878989320       -4.90279543080345
H           17.33638219440000       -5.59438364302269       -5.04072931460250
H           17.39203792946305       -8.03394452885596       -2.29566568922711
H           18.16539366008697       -7.54701473971228       -3.77844998426122
H           16.12558351910219       -8.26761651322696       -5.07717029900367
H           15.35498487337254       -8.75685753110817       -3.59435089878626
H           17.96756159809444       -9.96013086670735       -4.68366574093359
H           16.38952741673752      -10.74070888891756       -4.74276723406846
H           17.18067821905156      -10.45878324388447       -3.19463928363526
H           15.54853018438424       -6.73151062042905       -1.35983239465625
H           14.44381084781682       -4.53603578852420       -1.21698807337499
H           16.12846722588738       -0.00602956932336       -3.32577252030847
H           17.42132641122414        2.03550317255170       -3.58908317685179
H           20.50834819054318        6.00752782457727       -5.52990236790887
H           22.92529662073011        5.83637659166929       -5.96859600858678
H           25.20629221843974        3.69236467932287       -4.04302084604443
H           25.11168301498829        5.07453249114148       -5.09845789486227
H           24.45638101266790        3.57038408301664       -7.01228595487019
H           24.54114729373601        2.18774982462248       -5.95734929593867
H           26.91770116870297        4.02106544035057       -6.62885582248518
H           26.66418446940344        2.40619633396675       -7.28503899845121
H           27.00176945431780        2.62203242327398       -5.56998301548807
H           23.18532943650376        2.56527286721911       -3.27239668180482
H           20.76946294551210        2.73518459977794       -2.83145588521653
H           16.43379725870614        6.68979583211903       -3.37359122653757
H           11.06246487851152        9.10120174090916       -3.62765432461358
H           10.05728069661611       11.31952494309792       -3.27003604791660
H           11.28887569142768       13.75552243295635       -0.87473115394486
H            9.98545037330880       13.34384551578612       -1.95386927691120
H           11.38243749325450       14.08065638734934       -3.92133115783594
H           12.68396208946333       14.49491162586795       -2.84148011453728
H            9.89565328268150       15.79124329632272       -2.80029088715401
H           11.35991128247444       16.54555821298701       -3.42495829498018
H           11.20425181935070       16.20499567353884       -1.70406994376044
H           13.44412261652526       12.48945986763783       -0.98983590031584
H           14.45253870758969       10.27246390566776       -1.34823531243322
H           11.85851108345663        5.70088533379068       -2.48486335970023
H           10.56335480639734        3.65899748497770       -2.23171597322244
H            7.15632130251001       -0.72589312047458       -2.54243794627323
H            4.73563753883525       -0.70077991285845       -2.09342590664592
