108
 energy: -22.266894202684 gnorm: 0.000873922432 xtb: 6.5.0 (97a52f5)
C            1.21194675171508       -0.14016208653298       -0.14785421090205
C            2.70634077787213       -0.34031494781983        0.04679018429400
C            3.44411521474948       -0.61872909707474       -1.26458897801815
C            4.91855359350472       -0.82111360238739       -1.07297568318137
C            5.43736009898225       -2.08971163222162       -0.85961649606176
C            6.78781764347548       -2.27304003372459       -0.64933103706013
C            7.66010317635742       -1.18972288957901       -0.63983398072525
C            9.04114886568445       -1.37668795034409       -0.42229358495746
C           10.23730381902110       -1.53977343718108       -0.22771683679104
C           11.61262011001781       -1.71715021330244        0.00023104291377
C           12.13139425646371       -3.00226752848543        0.07851765990937
C           13.47887711332732       -3.25331983553406        0.30345423375486
C           13.93588705981230       -4.57807810614514        0.36906726574426
C           14.35948361130540       -5.72532366660750        0.42401634770934
C           14.86178270044362       -7.03620626416342        0.47972004809953
C           16.23518111914384       -7.27498821030576        0.47548697057927
C           16.72995866292665       -8.55563579708697        0.52238321293127
C           15.87168814488175       -9.65988635574335        0.57559591150031
N           16.37624919643763      -10.97135405722026        0.61659931804171
C           17.81187211612520      -11.24297293529660        0.53338427008284
C           15.49043056158494      -12.12943506779274        0.74451713180158
C           14.49373945684976       -9.41407730193362        0.58432703701931
C           14.00193672642421       -8.13211350683695        0.53673940125567
C           14.36703679703562       -2.16213747336389        0.45988460185215
C           15.75713255685259       -2.35244471794897        0.69262401135587
C           16.59922530906903       -1.30105256263854        0.84008413637279
C           16.13048431389569        0.03976650537941        0.76930453895338
C           17.00146063384250        1.14547979543783        0.92165083164309
C           18.37436795679880        0.96472113180956        1.14648961771573
C           19.56925308447046        0.78298060165785        1.34113146276722
C           20.93852034877471        0.55922197385124        1.56201039170964
C           21.81281858864805        1.62315664332545        1.77898624113062
C           23.15196051180885        1.40471480583251        1.99418425519343
C           23.68047800994085        0.10861561741672        2.00145659775352
N           25.05038510248576       -0.11658942482424        2.22133865692108
C           25.98459270598094        0.99032375022797        2.43218926891962
C           25.60663245279068       -1.46960425246787        2.26753786727417
C           22.79790712291855       -0.95566613356009        1.78346389700146
C           21.45915618205708       -0.73402803782152        1.56928817331427
C           16.48206710259606        2.43137755501880        0.84460993448998
C           15.13542279569172        2.68237566650316        0.62088452497079
C           14.68030275944360        4.01030482472500        0.55688678527947
C           14.26912499379243        5.16063456263220        0.50313922505007
C           13.78900241180481        6.48572346318313        0.44760063240575
C           13.05711986936088        6.93501506933476       -0.64629282258105
C           12.59072483381428        8.23186320004101       -0.69865443879441
C           12.83565182569654        9.11614221379635        0.34159427874537
C           12.36264926911400       10.53857149135084        0.26841188144629
C           13.42191299140607       11.48949880036428       -0.29248921148182
C           12.94196850573076       12.93039719242013       -0.36685720449705
C           13.57115527182580        8.67309755057102        1.43041318421232
C           14.03928306172120        7.37720381427044        1.48533060947092
C           14.24675953547104        1.59143320149218        0.46343442619850
C           12.85659837889560        1.78152205681156        0.23065886040473
C           12.01458594579963        0.72999567641303        0.08219764395480
C           12.48316619281958       -0.61094971305620        0.15281133241376
C           13.86369415237439       -0.83874736603982        0.38353198354829
C           14.74985822049775        0.26785197259498        0.53908625220354
C            7.13550436531712        0.08203751091993       -0.84462501314095
C            5.78455615895142        0.26213071068401       -1.05506902375182
H            0.69806456252230        0.06041749422985        0.79490413903394
H            0.75077458782395       -1.02427789914294       -0.59182597212369
H            1.01015983397508        0.69824665727472       -0.81684394260835
H            2.89111284520437       -1.16656195612372        0.74605502664459
H            3.14810599474542        0.54192200060868        0.52871793620908
H            3.27869222880141        0.20642535571638       -1.96690474304646
H            3.01478114491763       -1.50151824012201       -1.75217479935288
H            4.77099932471625       -2.93544419072480       -0.85686608367638
H            7.18271817665514       -3.26160880252952       -0.48701901814540
H           11.46330090015508       -3.83716382011654       -0.03945751078563
H           16.90757505368965       -6.43488454054539        0.43429382732319
H           17.79365600771745       -8.71356092799381        0.52260437116440
H           18.23064666364620      -10.77617795903694       -0.35625447161444
H           18.00814621678374      -12.31157041094235        0.47453427551379
H           18.31819141223126      -10.85027261556034        1.41326616135540
H           14.87349133521254      -12.03140063298076        1.63616593148263
H           16.05908526138391      -13.05371675852077        0.82788557608831
H           14.84469305851994      -12.20461029524215       -0.12877261982487
H           13.81025893680819      -10.24327719386684        0.62376703086189
H           12.93931079715086       -7.95808450609258        0.54151559016575
H           16.13582222705504       -3.35789661587463        0.75067760045928
H           17.64705384821165       -1.47086830328868        1.01592017420233
H           21.42038495290318        2.62592423237845        1.77583803278149
H           23.80544431815238        2.24190603803387        2.16277651336318
H           25.94206420871504        1.68197203323130        1.59268515625113
H           27.00829346586785        0.63179649627586        2.52021044387546
H           25.73068005940737        1.52451140527801        3.34612776898709
H           25.11190763139989       -2.05140216454614        3.04323344222904
H           26.67218012775381       -1.45132966920972        2.48796650271066
H           25.46671631991989       -1.96456701432879        1.30821070973346
H           23.17557810997617       -1.96249046068041        1.78208487676375
H           20.79199109700000       -1.56279302538103        1.40310428565849
H           17.15040419819951        3.26608204788139        0.96267769766155
H           12.86010150553136        6.25424004182728       -1.45677154390193
H           12.03331030287527        8.57076009599606       -1.55510094149738
H           12.05444341130087       10.87046710331328        1.26675571338344
H           11.45540411669749       10.59026122626060       -0.34453482362283
H           13.72940163468180       11.13991319530317       -1.28703970628621
H           14.32863367374674       11.42232125216268        0.32318670811811
H           12.06477436504218       13.02159471907292       -1.00964451351285
H           13.70983674054097       13.59907017868138       -0.76181189845487
H           12.65805437938733       13.30246768415257        0.61913485030772
H           13.77854830204595        9.35670776319188        2.23594231672690
H           14.60855681643843        7.04117460972645        2.33519803271955
H           12.47770266707396        2.78694487765716        0.17324116765626
H           10.96671166811070        0.89971683320764       -0.09357606697858
H            7.80093181525463        0.92848163994166       -0.83438945404695
H            5.38876259740952        1.25215986838811       -1.20510136811864
