107
 energy: -22.165262151145 gnorm: 0.000444666741 xtb: 6.5.0 (97a52f5)
C            1.58977106135129        0.09269690339431        0.54531360404605
C            3.08313198618731        0.08063853144570        0.25942884468359
C            3.40036100423708        0.00550934422007       -1.23523646019025
C            4.87368123863642       -0.00890260016273       -1.52052247619746
C            5.56948299430878        1.17514469120390       -1.71495324517036
C            6.92786816194355        1.16424418649936       -1.95245517989892
C            7.63271027932567       -0.03406590221419       -1.99576610575530
C            9.01993439448793       -0.04965130763442       -2.24809010204940
C           10.22066256354922       -0.06681633137373       -2.47948375343903
C           11.59597914893825       -0.08173490741563       -2.76414080517729
C           12.24680474604374       -1.29829932530801       -2.91542028729749
C           13.60068496599964       -1.39133751951552       -3.21056480218341
C           14.19046912651814       -2.65451747844483       -3.36266544311321
C           14.72404110703723       -3.74581717162175       -3.51455747364084
C           15.34828375037299       -4.98985467983880       -3.70490708417875
C           16.68854913779056       -5.06500731875078       -4.08068910257065
C           17.30212235050526       -6.27936823811735       -4.27085504364211
C           16.60187139609002       -7.47791183368983       -4.09353422731812
N           17.22832347455532       -8.72165979098756       -4.28961050188477
C           18.61116153756489       -8.81728289752227       -4.75928164076739
C           16.52632111932804       -9.98119326320443       -4.04140735452159
C           15.25682029974512       -7.39639338069624       -3.71579440276147
C           14.64566481552591       -6.18054306651631       -3.52672824385521
C           14.35676406157843       -0.20352759976288       -3.36447051803378
C           15.74457526594299       -0.23128364107502       -3.66999598631476
C           16.45680621492441        0.91182622634839       -3.82634539560946
C           15.84736539953804        2.18867587915915       -3.69195051128168
C           16.57985068048272        3.38914784658644       -3.86357591116750
C           17.94581569222922        3.36907762648047       -4.18092855741957
C           19.13476012746360        3.32676310305055       -4.46949051802258
C           20.49554809527907        3.26070212507818       -4.81253960012401
C           21.28771117913346        4.40753809430680       -4.83069526128334
C           22.61712763880082        4.34276086039942       -5.17134678091673
C           23.21712519240592        3.12498563038811       -5.51104370097916
N           24.57668135630601        3.05746138761159       -5.86408683313325
C           25.40905782605839        4.25882176971963       -5.93852918293404
C           25.22109581629966        1.78445397588400       -6.18959999830707
C           22.41733056124080        1.97683770816931       -5.48989000842850
C           21.08829853959707        2.04462206864087       -5.14857199220259
C           15.92652885111541        4.60624319797089       -3.72373335345813
C           14.57475598511731        4.69957258403510       -3.42021574118071
C           13.97950316043599        5.96419627858397       -3.30496650600371
C           13.44821898930155        7.06353511247459       -3.21644391915390
C           12.83923226300052        8.32651548660654       -3.12889978342107
C           11.46730580994279        8.44679211806964       -2.91344538819347
C           10.87063999218154        9.68173934699558       -2.83220394600720
C           11.62034341142090       10.85619422921985       -2.96304395789863
N           11.01164346426368       12.12123764648832       -2.88078667054180
C            9.56911294179880       12.26583223450197       -2.68165334782341
C           11.79462508932287       13.35454622117555       -2.96892940824174
C           12.99726513890334       10.72915862922039       -3.17823332042604
C           13.59117117134535        9.49299897255496       -3.25905217926931
C           13.82282871878847        3.51180434098890       -3.24349474723124
C           12.43573653787254        3.53926212025651       -2.93490321363095
C           11.72357996690530        2.39608115798019       -2.77739429129802
C           12.33230775602800        1.11902146421497       -2.91437095235495
C           13.71623557209497        1.05307190055399       -3.21705642767048
C           14.46507627866304        2.25507661170284       -3.38214237236328
C            6.93416114605983       -1.21873537418590       -1.78795028287489
C            5.57582680594611       -1.20455027565226       -1.55112569898746
H            1.37705901200782        0.14591211306032        1.61530658067739
H            1.10694476955934       -0.80665578953850        0.15875232957147
H            1.10424825750067        0.94745438367650        0.07093604655051
H            3.56108723638125       -0.76445996980070        0.77225172684415
H            3.55855587295469        0.97457716151258        0.68420335286862
H            2.93681912391068        0.85074954035795       -1.75682275040274
H            2.93761116824042       -0.88840903988149       -1.66903685956220
H            5.03547368271068        2.10934140167777       -1.67769977448962
H            7.45937801612074        2.08764645933181       -2.10808665704461
H           11.67895317672929       -2.20528224706381       -2.80439536166094
H           17.23986210318345       -4.15070330078745       -4.22110407794128
H           18.33874554326653       -6.31078944786601       -4.55507732456512
H           18.73254949783465       -8.25612443011906       -5.68412996993107
H           18.89000198942615       -9.85086183802153       -4.95520508454636
H           19.28932696589174       -8.41658402944259       -4.00790436060610
H           16.12830774694831       -9.99479654134896       -3.02836581808846
H           17.19495131405580      -10.83278908779276       -4.15082400502430
H           15.70614101694428      -10.09743455387929       -4.74765543948964
H           14.69197443845087       -8.30093595569123       -3.57746698899599
H           13.60930918965253       -6.13327514098349       -3.23814330533611
H           16.22837237525911       -1.18614992551964       -3.77880772528397
H           17.50617152784403        0.86463901143050       -4.05930160454816
H           20.83963452953748        5.35190848553624       -4.57212391844197
H           23.20782905801570        5.24131984360637       -5.17494708909632
H           24.97026720695552        4.97562379764599       -6.63037608763946
H           26.41175481520617        4.02278458987933       -6.28949315722859
H           25.49158451226142        4.71822530803422       -4.95511072429405
H           25.11367455946527        1.08749178007895       -5.36033431528563
H           26.28389532245084        1.91803878941031       -6.38160279390207
H           24.76602025664545        1.35188040695228       -7.07887158396879
H           22.85041321296410        1.02733425411032       -5.74907317084196
H           20.48465516824390        1.15294532604586       -5.13853180192297
H           16.48922341005886        5.51309270545572       -3.85944945890320
H           10.87756399601161        7.55163222769258       -2.81124878457980
H            9.81093152432006        9.74824170590867       -2.66214989133072
H            9.02823855325027       11.74066746975474       -3.46686094814413
H            9.27035922186990       13.31185734444331       -2.70967512318211
H            9.28207002057451       11.85462717878272       -1.71549661598981
H           12.55261160871378       13.37272620565921       -2.18782035684499
H           11.16323751534331       14.23248865927216       -2.84725369314396
H           12.28261732409715       13.41920998389967       -3.93984903677743
H           13.59868115836241       11.61426354200652       -3.28409172405019
H           14.65171369136675        9.41051862088382       -3.42647136994183
H           11.95147129018832        4.49409991090432       -2.82792655426094
H           10.67397629406153        2.44324964393055       -2.54545655920411
H            7.47093834410310       -2.15179281555779       -1.81506685366896
H            5.04690002315441       -2.12772744607576       -1.38596376525823
