65
 energy: -13.485685722625 gnorm: 0.000927985565 xtb: 6.5.0 (97a52f5)
C            1.42717772716182       -0.16504488391905        0.31877900423062
C            2.92628522672849       -0.16150932656494        0.06479198263143
C            3.27812891861710       -0.32212772372202       -1.41529559763101
C            4.75727463344513       -0.31813691744439       -1.66800133531138
C            5.43793384232423        0.87457446141850       -1.86119924293054
C            6.80123047294294        0.88310318229876       -2.06689386511063
C            7.52605617800675       -0.30377665851516       -2.07995268626156
C            8.91926731664570       -0.29680770105450       -2.29623704967770
C           10.12554365927787       -0.28803500089414       -2.49348642581470
C           11.51156480327463       -0.27863888076456       -2.73049875478906
C           12.22477893255594        0.92650797602815       -2.78556163764117
C           13.57150823677913        0.93631154576508       -3.02202270932377
C           14.28986193255788       -0.25781063150035       -3.21777586698141
N           15.62725382897412       -0.19161465570322       -3.45056848061627
C           16.27237543459625       -1.33927440900938       -3.62849997114922
C           17.66620853171084       -1.30550461529785       -3.87291537652120
C           18.37488415867308       -2.44752767973658       -4.05872819326606
C           17.74090270532996       -3.71090841916391       -4.01372489118199
C           18.47248022276245       -4.89726889108926       -4.20304050795394
C           19.11153624273325       -5.92622601271296       -4.36559661368673
C           19.85391853547005       -7.11039576919068       -4.55374463560690
C           20.72531559069460       -7.24159197703696       -5.62944582298050
C           21.45064850729364       -8.39967594726978       -5.81277487819362
C           21.33363779531915       -9.45796924249962       -4.92393944922414
C           22.09927066715434      -10.73050625701988       -5.13929642175343
C           21.28292991251693      -11.80017141810190       -5.86829586946298
C           22.06446569060482      -13.08425638795077       -6.09790785855916
C           20.45936207598740       -9.33305633263613       -3.85455500015865
C           19.73195375058126       -8.17663987643113       -3.66974905886535
C           16.39480866505072       -3.74362289906409       -3.77893305645566
N           15.66518115318344       -2.59740548616477       -3.59033884429794
C           14.28073582689450       -2.71794942425683       -3.35595220812805
O           13.71672766425976       -3.80172072643200       -3.32002078569706
C           13.57148874919854       -1.47079542644145       -3.16052023939691
C           12.20394945252377       -1.46142091322565       -2.91993817954568
C            6.84242378744120       -1.49717886956085       -1.87500175961716
C            5.47916018675095       -1.50254109660707       -1.66886940995531
H            1.19071939410048       -0.05010269998610        1.37860713071159
H            0.97231435774083       -1.09713196784815       -0.02032691762308
H            0.93469832929581        0.64742893364820       -0.21779593776621
H            3.41048337796492       -0.96206345266570        0.63897169855506
H            3.37277032788223        0.76749623187826        0.44239704112249
H            2.80810044327251        0.47802123105254       -1.99829153392517
H            2.84533782715448       -1.25187476798544       -1.80159749966202
H            4.88840562913965        1.80009872450673       -1.84725578300101
H            7.32161152548654        1.81321059006249       -2.21955357797697
H           11.69213913933362        1.85050678599022       -2.63926073519216
H           14.10980607701494        1.86672114914753       -3.06346297353944
H           18.15410596300689       -0.34749036666903       -3.90716469703849
H           19.43456123846368       -2.40762414003943       -4.24392212321977
H           20.82515043675632       -6.42301945668786       -6.32154083287210
H           22.11595575616763       -8.49175382778771       -6.65386676452012
H           22.44066573420628      -11.11653831665285       -4.17201872970467
H           23.01452755154011      -10.51440053925833       -5.70226101473740
H           20.93041356125544      -11.39397300432317       -6.82585328260963
H           20.36925473033941      -12.00967220016416       -5.29613260440503
H           22.95956534955458      -12.89935082126906       -6.69415965544119
H           21.47100274689778      -13.83719863067651       -6.62066304704223
H           22.39147803454678      -13.52104451145799       -5.15290137260274
H           20.35297811213213      -10.15441355110310       -3.16683004852666
H           19.05731565173270       -8.08715275371623       -2.83516135737406
H           15.87567377796678       -4.68399671405283       -3.73720783344182
H           11.67600107600872       -2.39727896386516       -2.88192186116044
H            7.39476840628251       -2.42145971848436       -1.87885186846589
H            4.96208442872925       -2.43218995013024       -1.50436212175403
