58
 energy: -12.481022121180 gnorm: 0.000904943533 xtb: 6.5.0 (97a52f5)
C            0.99317742720100        0.01719104041176        0.37600015553569
C            0.16810445755879        0.96020335392272       -0.11015066914901
C           -1.28301861773091        0.94434108763830       -0.05169248403893
C           -1.97798667777094       -0.13381056242010        0.50204480012404
N           -3.28467740646840       -0.21699258846871        0.58508798503714
C           -3.89937070519949        0.83644068067989        0.08617429656952
C           -3.23939882348247        1.90994152890822       -0.46430642048313
N           -1.93071685239659        1.99992634334848       -0.55110531034009
C            2.44114135711090        0.05243741964372        0.30022498648501
C            3.18504724497894       -0.99552901512157        0.85170636907942
C            4.55602393555588       -0.99952360553901        0.79370255451360
C            5.24920688191517        0.04463365600608        0.18290229677090
N            6.67818152305180        0.03395876766456        0.11013163663681
C            7.38003680419613       -1.21506109025960       -0.00788932357112
C            8.56222989285018       -1.43330026641494        0.69498997310644
C            9.23588770448599       -2.62834362571033        0.58149166612031
C            8.74292885852848       -3.62611363534974       -0.23636962548426
C            7.57243838168405       -3.42419964709408       -0.94126450938097
C            6.89627758248024       -2.23040645481068       -0.82892279659612
C            7.41912604536163        1.25890698516765        0.13955151359907
C            8.57937198340657        1.40857871208208       -0.61897631899251
C            9.29159536414660        2.58112934010006       -0.59214878002640
C            8.88247145525418        3.65663108484682        0.20256828940529
C            9.66257704179284        4.87960536526819        0.20931129995108
C            9.45819201726940        5.92064123848677        1.03445361251924
C           10.21935158442602        7.15741515203546        1.05850516493687
C           11.19406562465115        7.43094447816460        0.09484521524043
N           11.91253455212303        8.52772912987916        0.04959275624206
C           11.62463671463538        9.37057809921101        1.02102553647942
C           10.66907926556030        9.12654149921303        1.97985771435526
N            9.94365942840575        8.03137459178343        2.02990898426235
C            7.71809355238840        3.50220209174066        0.96237616517719
C            7.00397309318406        2.33058851426801        0.92921396090083
C            4.51168437414988        1.09224942055874       -0.36757920473694
C            3.14028902337542        1.09841678554657       -0.31077976293447
H            0.56834361301177       -0.83943464865144        0.86467333905240
H            0.59294207400563        1.82185767300369       -0.58867507844618
H           -1.42565707149149       -0.97218903967474        0.89226252180305
H           -4.97926457832054        0.83406885745748        0.12162917543289
H           -3.80922510024376        2.74058210498677       -0.85364508979214
H            2.66637936091659       -1.80937697241478        1.32860098178685
H            5.11558172100330       -1.80774039399728        1.23071533095700
H            8.93636947618492       -0.65454878988897        1.33625571979654
H           10.14882627077104       -2.78574456753592        1.13217209283792
H            9.27109148020177       -4.56128810031924       -0.32460756395495
H            7.18859340265456       -4.20196772620599       -1.58096708992701
H            5.98873378031343       -2.06382877293542       -1.38233284300477
H            8.90112552374389        0.59093927349022       -1.23961490321388
H           10.18336780537345        2.68072976431952       -1.18677299852194
H           10.46963062172015        4.92979305384379       -0.49772027721594
H            8.67975610085173        5.85126692172528        1.77034392671819
H           11.38028259624130        6.71109754338378       -0.68491214189062
H           12.18112794277629       10.29641546403380        1.04487037930790
H           10.48570713521945        9.86451931182288        2.74688823791923
H            7.36729107099619        4.31423034868492        1.57331250995503
H            6.11515289393860        2.22050545098284        1.52556108099721
H            5.03704375681180        1.89403133978578       -0.85598794576377
H            2.60083603463441        1.91989602871125       -0.74581109214946
