78
 energy: -15.548577576740 gnorm: 0.000496516261 xtb: 6.5.0 (97a52f5)
C            1.76131868862615       -0.86741947267223       -2.72393207290247
C            2.65667392138113       -0.99693642490131       -1.50253910318521
C            4.13781233683584       -0.94601143192532       -1.84678878049426
N            4.98522804363460       -1.04357636736712       -0.64730837401439
C            5.10104508584618       -0.09734926914742        0.38324786320847
C            4.58654460956206        1.27708497906048        0.31277317937534
C            4.79100389786056        2.06943669205072       -0.81115954805688
C            4.29168948156947        3.36441093789157       -0.87979045832552
C            4.55177640861723        4.19108975771714       -2.06568800685376
N            4.48526197494096        3.73212764908365       -3.30497319417731
C            4.84545203923382        4.76617984307080       -4.11411842052345
C            4.95776194738851        4.82495331116914       -5.51341273524520
C            5.38025304393578        5.99060700542066       -6.09459312495533
C            5.70303765175968        7.11559487708631       -5.31904620769142
C            5.60195924412750        7.08625993773417       -3.95358162813304
C            5.16448528677246        5.90515999240182       -3.34086216192391
N            4.96175870312982        5.53288866321586       -2.02331072956705
C            5.40315545249510        6.29496001764786       -0.84245662353459
C            6.64301670085190        5.69304802244169       -0.19685540381017
C            7.11953208818994        6.48056905415256        1.01256669083815
C            3.56131580567284        3.85730980669563        0.19490869839260
C            3.36770867607336        3.09895134082269        1.34248877941392
C            2.62039248571914        3.66352295217549        2.47458495913707
N            1.49522180998111        4.34698172196305        2.33964442631852
C            1.14383412004502        4.75242484873050        3.59120197078833
C            0.04612518437306        5.51640295347432        4.02188123966030
C           -0.06295846307049        5.82657887863648        5.35117317243789
C            0.89968240739056        5.39997143659132        6.28001207024688
C            1.97919225811852        4.65398115387925        5.88801275294972
C            2.10344847458213        4.31902474315902        4.53384144918683
N            3.04324074833584        3.60486664550127        3.81120073740669
C            4.36974564015258        3.19589130818294        4.30059881661079
C            5.46770576933316        4.13640245132945        3.82568848463287
C            6.84487121329967        3.74180029522574        4.33276539092084
C            3.88712902435084        1.81044240523387        1.38860021358626
N            5.67734189196179       -0.60582730127359        1.46050094070414
C            5.95812171893034       -1.90496604610127        1.16544497682421
C            6.54358692854342       -2.90783620229831        1.95638407832383
C            6.67451637536056       -4.16790516484391        1.43655807429995
C            6.23116889495319       -4.47008902888867        0.13904646908173
C            5.65510381236591       -3.51262497831514       -0.65272271088482
C            5.52096784121931       -2.21545342903266       -0.14197876268978
H            0.70205919173587       -0.90932363146582       -2.46183372250693
H            1.95516951162862       -1.66663047545698       -3.44129404901246
H            1.93410882988714        0.07815317510650       -3.24055362184855
H            2.44539154010432       -1.93271772594349       -0.96902511881236
H            2.42983984592294       -0.20256630133803       -0.77967888472597
H            4.37663937286106       -0.02283846284705       -2.37899676723148
H            4.40171944485089       -1.75878912806114       -2.52890562045944
H            5.37034228139318        1.69077634911834       -1.63205087412197
H            4.71457489957544        3.95822066191245       -6.10146252053758
H            5.47024866908201        6.04682730754955       -7.16696290416092
H            6.03601264820684        8.01607040237312       -5.80844089322583
H            5.84794566432212        7.94514310761566       -3.35535175124689
H            4.58144236942385        6.34949528039617       -0.12473747184412
H            5.59765417099012        7.32689160943480       -1.14683237649078
H            7.44019739655475        5.62556496107013       -0.94840535809914
H            6.43345277515815        4.65358960159091        0.08598826201130
H            7.37234486993861        7.50661161225194        0.74017485108847
H            8.00491047216377        6.03371881514794        1.46970473157007
H            6.34438898253406        6.53335479900285        1.77885869214293
H            3.12874427740471        4.83832834715842        0.14005321032756
H           -0.68402276788748        5.84624055309012        3.30474651067182
H           -0.90110179723650        6.41163277001499        5.69242868691622
H            0.78537534944594        5.66528199953159        7.31814189616764
H            2.71948183112178        4.32452071467585        6.59479294587644
H            4.56988861026829        2.17284303958840        3.97431941381738
H            4.34341571462291        3.15982267886623        5.39304294968739
H            5.22223117300937        5.15909089760845        4.13995731317489
H            5.46184159022134        4.16858903678067        2.72866018262564
H            6.87808291002633        3.74121585638284        5.42348589194985
H            7.62234427618914        4.42273478010996        3.98041244839110
H            7.11347044864222        2.73738486250765        4.00184039573260
H            3.71894146065772        1.19913495500585        2.25519376337215
H            6.87140419161046       -2.67262501034620        2.95306963280552
H            7.12200031675422       -4.94474083889193        2.03446126629328
H            6.34567306867474       -5.47322464013456       -0.23747507471913
H            5.31131718572616       -3.73863052437517       -1.64616342291296
