60
 energy: -11.559971810772 gnorm: 0.000689281678 xtb: 6.5.0 (97a52f5)
C            0.51827707101213        1.10521747958228       -0.88433591400393
C            1.97167484156138        1.13123036277210       -0.44022375860294
C            2.94273770389496        1.29471724539194       -1.60036150436491
N            4.33866387244653        1.29564363375434       -1.15567280574484
C            5.01878724424745        0.08012404924520       -1.17939542961785
O            4.46501396167046       -0.93668819315329       -1.58150587685011
C            6.40328829224895        0.06947957932629       -0.70900809609093
C            7.16102296198103       -1.14304039929711       -0.70839873813476
C            6.72714304729775       -2.35561610087227       -1.11062802505223
C            7.48272924286426       -3.56943794032727       -1.10004557625942
N            6.87181795111333       -4.65116300659786       -1.52777321189009
C            7.56118195938154       -5.83904336648779       -1.51564548156208
C            6.90838094581362       -6.99962139767833       -1.94615209641900
C            7.53944867244646       -8.21541839465024       -1.94389234415226
C            8.86186471594423       -8.33158367217606       -1.51464052560302
C            9.53691273062797       -9.65802042933299       -1.48143728268664
C            9.51725916648272       -7.20084896745141       -1.08265033020099
C            8.89628042514030       -5.94709889158897       -1.07775366528666
N            9.54762328129094       -4.79395492278047       -0.64854987539004
C           10.92101386931022       -4.80655789126960       -0.13882356671169
C           10.98696130366544       -5.22434080519755        1.32316366273326
C           12.40511914275276       -5.24410966081226        1.86992318387606
C            8.86521293518499       -3.57971504805533       -0.62370111061016
O            9.41499400125318       -2.56417581655480       -0.21295271937043
N            7.01087096193848        1.14726163068668       -0.26725514139557
C            6.30638171657011        2.32560514952757       -0.23056921596196
C            6.93876039502471        3.47069612488799        0.26661264126810
C            6.28488237670957        4.67217304281467        0.33740299877170
C            4.96233129222556        4.79083346754394       -0.09042754227136
C            4.24259589876444        6.08948100598949        0.01707693988897
C            4.32274053209854        3.67238447305615       -0.57517216382615
C            4.96919476605412        2.43460549365233       -0.66192048140044
H           -0.16453362676811        0.97564729239817       -0.04261678957299
H            0.33534072241099        0.28901868912318       -1.58455459802080
H            0.24392875225680        2.03163777626003       -1.39089778639808
H            2.22148703768677        0.20983163133357        0.10119398366159
H            2.13476271912788        1.93783638956346        0.28526408107141
H            2.73851900306593        2.20685348161065       -2.16764489552226
H            2.82045113618994        0.47076858465570       -2.31071539918190
H            8.16853346207966       -1.05857541043994       -0.34327491400278
H            5.71844494303199       -2.44074411196797       -1.47228706840716
H            5.88821495441821       -6.91802126794745       -2.27784642593303
H            7.01628578933022       -9.09717792025563       -2.27165044524255
H            9.12033393909372      -10.33114354443191       -2.23129219726102
H            9.41850986378200      -10.12722550128945       -0.50426756395522
H           10.60442489280400       -9.56043782733545       -1.68139586684366
H           10.52975319000102       -7.29382088899016       -0.73778067174309
H           11.33157699036862       -3.79908155336713       -0.26118671458918
H           11.53717844470330       -5.45522926214566       -0.76766073269760
H           10.52019677917101       -6.21046742598253        1.43928650890844
H           10.35961373528835       -4.54428563455901        1.91371928497123
H           13.03453322393680       -5.93570208395522        1.30832039502674
H           12.43561526932032       -5.54838035313221        2.91784482718870
H           12.86726225342133       -4.25855677028939        1.80098708608891
H            7.95842097943694        3.38629517402009        0.59910733170248
H            6.78804430843656        5.53899416968623        0.72994784195202
H            4.93683664215232        6.92932463215261       -0.02280544545440
H            3.69391752693106        6.15032737541027        0.95736415990176
H            3.52898991399875        6.21150742971319       -0.79831385313511
H            3.29857987531494        3.76033909622084       -0.88519107958213
