61
 energy: -10.495196699517 gnorm: 0.000347984931 xtb: 6.5.0 (97a52f5)
C            0.57568141279399        0.96436153573798        0.17506849115718
C            2.06045199978157        1.06896086338759       -0.13357235763564
C            2.92610581267197        1.10498156586607        1.11870198181645
N            4.36426624868623        1.19830168888974        0.80106877400247
C            5.11799717568347        0.01528042113961        0.62384970457329
C            4.52280976353143       -1.24277548708073        0.62187010352304
C            5.27767962558568       -2.38603659692428        0.47037344046914
C            6.64255188271420       -2.30510010137373        0.29658974954171
C            7.28903842414486       -1.07321505102361        0.25965796552567
C            6.52054043497430        0.10303907489252        0.44222761941847
C            7.15834725558349        1.37380097601198        0.44149827189061
C            6.38259450216712        2.55776829515980        0.57432050820613
C            4.97452040676227        2.47009154166140        0.70438687776443
C            4.23424267271962        3.64803278199432        0.74596557268967
C            4.85319879758011        4.87855648913928        0.69247886449911
C            6.22618107307358        4.96806601026369        0.60963057279177
C            7.01741295189887        3.82422129666022        0.56072684273749
N            8.42861438646434        3.89269588005591        0.50811742499131
C            9.09906414742463        5.19186498897356        0.70889067786986
C            9.32705946007195        5.93440851866472       -0.60076885546291
C            9.99625414304674        7.28510768166803       -0.40446765061915
C            9.20560478983184        2.72792904461234        0.31136165900542
C           10.58610775267016        2.78424647217300        0.14499063499159
C           11.32937102494786        1.63489708510354       -0.01761341773145
C           10.71508696096624        0.40112783077446       -0.03556705816196
C            9.33435793659862        0.28523180481521        0.09532912937071
C            8.56877257429199        1.46242820900359        0.28377986185983
N            8.67954022894356       -0.96600463266573        0.02717507747443
C            9.44582946254809       -2.16711900420103       -0.35889600998041
C           10.02708257105436       -2.89421933217747        0.84605397813270
C           10.82703815631051       -4.12880009525226        0.46307644366757
H           -0.02944609749776        0.93652254763779       -0.73297693828423
H            0.23633930665495        1.81298300126123        0.77052493145838
H            0.35490808818348        0.06104886791052        0.74525742936038
H            2.26105548492267        1.96316643618144       -0.73629421804122
H            2.37714636725361        0.23048327254639       -0.76588475931429
H            2.75268651190627        0.22261452824940        1.73922089063532
H            2.64564424536435        1.94163751914921        1.76291267618471
H            3.45772808731098       -1.33488387816772        0.72696354127146
H            4.79676439752596       -3.35022817787416        0.48476377547338
H            7.20932193177872       -3.21273576779944        0.20139509843126
H            3.16199983018085        3.60761087605036        0.79827281132050
H            4.25958409838042        5.77749815786338        0.71854587776941
H            6.68264364653196        5.93926521356856        0.55896181853840
H           10.04229540753605        5.03114370788696        1.23646956451792
H            8.50594351467659        5.79574090069299        1.40001925046305
H            8.36702055409195        6.05727516589620       -1.11675048442246
H            9.92509498844315        5.30680962796044       -1.27264027195825
H            9.39715216864882        7.93151513643555        0.23843521414783
H           10.14554414870806        7.80879485965745       -1.35050621691608
H           10.97288599280988        7.17561498761844        0.06889275871688
H           11.08779266735718        3.73403939196753        0.12876520068510
H           12.39860763321137        1.70184919031770       -0.13331094602074
H           11.32087354254545       -0.47984082860316       -0.14055020632315
H           10.23435959495161       -1.87931855779783       -1.05829876552163
H            8.80264528449408       -2.83010872904473       -0.94251919451736
H            9.21393121132681       -3.16557149336698        1.53023698404103
H           10.65226655602051       -2.19861102085570        1.41900756761824
H           10.20742956979965       -4.84903474347296       -0.07285807586440
H           11.23986468202179       -4.63590127640376        1.33716026009183
H           11.66050254933889       -3.87009867141357       -0.19135045192383
