41
 energy: -7.401915452504 gnorm: 0.000493025439 xtb: 6.5.0 (97a52f5)
C            0.65334917974516       -0.46544850079767        0.15770333705515
C            2.14969642189392       -0.66576484013018        0.34533014457724
C            2.88848590994889       -0.90340055870691       -0.96571494110489
N            4.34387943433928       -1.05262883539700       -0.76365346762278
C            4.88042741211659       -2.33134376772957       -0.54643052002799
C            4.10096596354077       -3.48250086853457       -0.42061347174955
C            4.68066467479599       -4.71904142001746       -0.23303649620194
C            6.04871468764437       -4.85790584051642       -0.15817087421073
C            6.88274207690372       -3.74803032185130       -0.25688023132824
O            8.25276536043473       -3.90831123760276       -0.16443438137997
C            9.05341562782517       -2.78579787044448       -0.24844969015609
C           10.43878302728680       -2.90206247833879       -0.15583355925181
C           11.24854014199366       -1.78999940758201       -0.23408744117903
C           10.71069572937501       -0.53298708750092       -0.40445702315480
C            9.33271283797113       -0.35228598848863       -0.50330281931058
O            8.80662313394365        0.91418374902158       -0.66847455272274
C            7.43371502631379        1.04972845603040       -0.75731390802409
C            6.87225021533300        2.31440810728839       -0.90715441828087
C            5.50693176342856        2.47317989068802       -0.98911806605165
C            4.66077299166407        1.38635722213496       -0.93610837676799
C            5.15886857538060        0.08935678492313       -0.80065897611390
C            6.56226821466385       -0.06753337705672       -0.69829470623839
C            7.11284155725627       -1.34639647248443       -0.52958211786325
C            8.50158948095907       -1.49507521623022       -0.42716692907757
C            6.28550226340056       -2.47598779024353       -0.44737314780735
H            0.14176059159269       -0.30181899731959        1.10794892180358
H            0.19676958801936       -1.33488777746961       -0.31718599151315
H            0.44858844727906        0.39660947314456       -0.47861099013767
H            2.33884404789896       -1.50817477250458        1.02203310439602
H            2.58779314664056        0.20276156531498        0.85227520564011
H            2.70798344396183       -0.08838924319429       -1.67000934493648
H            2.50366296373393       -1.78716620094883       -1.47909040293211
H            3.02938921407520       -3.41144547357649       -0.44893451487183
H            4.05403387487905       -5.59142034847600       -0.14193895432579
H            6.49854472545226       -5.82433903202936       -0.01332356566957
H           10.86060666866805       -3.88219674273825       -0.02018392309234
H           12.31798534693915       -1.90480392471284       -0.15969707178095
H           11.34430180135502        0.33429726463467       -0.46319341797213
H            7.53032341292209        3.16426173113212       -0.95124224425316
H            5.09434347372247        3.46329424168252       -1.09595793663518
H            3.60062754469883        1.55313590663095       -0.98391223973238
