77
 energy: -14.726890424182 gnorm: 0.000656918026 xtb: 6.5.0 (97a52f5)
C            1.51278607582207       -0.03477507575826        0.91347301934576
C            2.03779877047072        0.60942864044412       -0.35194264709190
N            2.61396436218234       -0.38290036168382       -1.28171894321495
C            1.69507714392272       -0.88425315015063       -2.30458635882742
C            3.90632813468761       -0.85948964252816       -1.16523294780810
C            4.41313061916662       -1.80683889306956       -2.07740745207423
C            5.69031008207759       -2.27688561762228       -1.97419009628177
C            6.54991888478669       -1.83221293943477       -0.95316740877344
C            7.93644530021505       -2.32699036191654       -0.85384242975872
C            8.39739038088340       -3.05982248908072        0.27045924610977
C            7.71593212587932       -3.52158640640195        1.45181326832664
C            6.28432821927968       -3.35294364597620        1.80123093418466
C            8.63948717595988       -4.16642366562628        2.23659743862868
C            9.89732788573381       -4.17841843963324        1.56677867649343
C           11.15983953414067       -4.68693422814387        1.98578967156861
C           11.41271831290342       -5.58266769412822        2.98425720178951
C           10.47285381601503       -6.46229984367169        3.63580525026311
C           10.75034736512066       -6.95581650833299        4.92234809661883
C            9.89401465882018       -7.81517233580347        5.54814380705089
C            8.70948575058097       -8.25361140930637        4.92479531724093
O            7.89807457337383       -9.11253699414030        5.63662822367648
C            6.69888089448163       -9.49915407612428        4.97091023603887
C            5.84238228287495      -10.41394671692910        5.83353623134311
C            4.54151127223744      -10.83171109173339        5.15486594271890
N            3.76170238912540      -11.66239147204158        5.93935178923403
N            2.63739357939050      -11.99326529380701        5.54448663620803
N            1.56909157711010      -12.29458258227409        5.15372422779628
C            8.44915275368982       -7.78635512110072        3.62140458430305
C            9.30844921668898       -6.92617409172543        2.99903272563177
N            9.68924805536726       -3.50235596821473        0.40603853122028
B           10.77779765578277       -3.35617433807285       -0.66270214585875
F           11.86070342252997       -2.66990586424004       -0.12903250961336
F           11.14847859013227       -4.61577283017686       -1.11445491070244
N           10.19431098324458       -2.55517075065551       -1.83034252754862
C           10.90892600061094       -2.19664274934398       -2.90325222354408
C           12.32381475380421       -2.52819387494635       -3.15339023036282
C           10.05049640798039       -1.41949010569493       -3.70318859164671
C            8.81774405896749       -1.32320200631230       -3.08065425518176
C            7.66528443228832       -0.54865205382284       -3.60293051387833
C            8.89186000291474       -2.08217116838138       -1.87386635313074
C            6.04535773126787       -0.88882025314531       -0.03956596891567
C            4.76762691878320       -0.41921431781753       -0.14008482830942
H            1.09588202632045        0.69879981220720        1.60625968405543
H            2.30253479683738       -0.57542981802669        1.43612575964573
H            0.72994882295034       -0.75897654334619        0.68454700100247
H            2.79721638796715        1.36656686186726       -0.13344589188095
H            1.24075231958621        1.15181236425349       -0.87154188425374
H            0.69769472203809       -0.47086666247223       -2.17044914299230
H            1.62036367678985       -1.96798821928456       -2.24054221021070
H            2.05259930073825       -0.60561784966489       -3.29402764274284
H            3.78224809135095       -2.16134838700136       -2.87235257802417
H            6.05781989008006       -3.00839273718126       -2.67291318603321
H            5.65496580714478       -3.40344045977932        0.91273416032320
H            6.11205337527102       -2.39467960397137        2.29123353347293
H            5.95551650674532       -4.13894850633786        2.48177304822587
H            8.44350862802514       -4.58205833768482        3.20929760869532
H           12.00337550147798       -4.25919733873077        1.46822041370346
H           12.43759851129579       -5.68290381078621        3.30747838501073
H           11.64971104744152       -6.63487139288418        5.41916975169409
H           10.10784474523264       -8.17819386159745        6.53771501184290
H            6.97397266983709      -10.00265260404888        4.03723451959031
H            6.14399721756361       -8.58988156338544        4.71328558121633
H            5.61942815896247       -9.91536257656814        6.78273324843066
H            6.41944617211243      -11.30370813028895        6.10655791729464
H            4.75280643704135      -11.34728583558524        4.21048642497509
H            3.94826130519169       -9.94712532333118        4.89434930589872
H            7.56827704491316       -8.11720699971228        3.10262869622847
H            9.11352673176417       -6.61511302314497        1.98767490817998
H           12.68409519734423       -3.23413921973744       -2.40464207226223
H           12.94646616865409       -1.63498028299024       -3.10241613067165
H           12.45092348882056       -2.98102973898102       -4.13674121821814
H           10.31978912161859       -0.95363432251147       -4.63562217008657
H            8.00259472997504        0.25514994879956       -4.25789386203428
H            7.09679162946623       -0.09417228993755       -2.79164443861970
H            6.99426813146278       -1.18753489347905       -4.17718821482861
H            6.69611750131501       -0.52795824713465        0.73800275892259
H            4.41384198511651        0.29679738078720        0.57874521128822
