46
 energy: -9.815677182379 gnorm: 0.000945597501 xtb: 6.5.0 (97a52f5)
C            1.03691538224626        0.18670345115176        0.28977533214846
C            0.23359477504565        1.17651340511765       -0.13721955141067
C           -1.21860371455838        1.17622913430372       -0.10557862556250
C           -1.93445573936698        0.09769935049026        0.42200827221777
N           -3.24334187495709        0.02629901444276        0.48219196554407
C           -3.83829070667016        1.09345071669417       -0.01190701182034
C           -3.15790106638070        2.16818050021340       -0.53535610924630
N           -1.84703129260904        2.24616848042389       -0.60017133919719
C            2.48625831270383        0.20823628303808        0.24811881652692
C            3.20528956972115       -0.88589925925983        0.74097241141168
C            4.57717984673572       -0.90073086278863        0.71928043921193
C            5.29688513354908        0.17665587582074        0.20416101578312
N            6.72581927128712        0.16121030378846        0.18226367536221
C            7.43821689457584       -1.08129194264525        0.06654992886599
C            8.59642953016683       -1.30456972400384        0.80731355580597
C            9.28473489857082       -2.49137474639116        0.69369804999775
C            8.83099743996129       -3.47528897778438       -0.16293265222594
C            7.68620241245146       -3.26725746686409       -0.90779393880552
C            6.99600977524101       -2.08127651436727       -0.79604007806249
C            7.47172813834434        1.38607611826610        0.26818305845167
C            8.61618059161375        1.57238234028041       -0.50337090687493
C            9.33896228247942        2.74073077727611       -0.41766565496984
C            8.93354690481001        3.74378748186491        0.44121047839243
C            7.80294369205587        3.57252318492039        1.21624971482474
C            7.07838026218750        2.40483014250145        1.13267128660213
C            4.58425972272867        1.26901715411960       -0.28976783296846
C            3.21162321272961        1.28624797041024       -0.27020231861844
H            0.59130893229120       -0.70127417277154        0.69727793040666
H            0.67913527980825        2.06184479522015       -0.54831850253102
H           -1.39620714849631       -0.74903641614958        0.81336737296103
H           -4.91855000902426        1.10277825307840        0.00538350733258
H           -3.71394381313328        3.00943916079047       -0.92126409456000
H            2.66661516141018       -1.72638508395421        1.14379464041939
H            5.11630427957150       -1.74395294074526        1.11373331611512
H            8.94131774942893       -0.53553235421200        1.47598238440598
H           10.17845581605680       -2.65216101688610        1.27432348717030
H            9.37031532972482       -4.40421118655517       -0.25087027204805
H            7.33402689378962       -4.03276484220434       -1.57957460973418
H            6.11156959040468       -1.90705248907253       -1.38373255865719
H            8.92323076083455        0.78870204003124       -1.17356624316966
H           10.22169734565246        2.87244400089113       -1.02169743072644
H            9.50014689585166        4.65805719545316        0.50781298068862
H            7.48887614315289        4.35315942720290        1.88976589660656
H            6.20527995882598        2.25941818733705        1.74454303226559
H            5.12958827977674        2.09966180861118       -0.70200166275907
H            2.69225889941213        2.14078344291456       -0.66406115556863
