52
 energy: -9.162299180060 gnorm: 0.003987900662 xtb: 6.5.0 (97a52f5)
C            3.22853122540080       -1.50093500246479       -0.60052649831466
C            2.53627421129086       -0.18474632791198       -0.31375920333406
N            2.89913154200167        0.34577697668176        1.01718513031650
C            1.88124765760085        0.15794538240005        2.06319663055924
C            1.18389644869305        1.45454440018083        2.41458313215567
C            4.14048960115222        0.95336184686734        1.26161629469066
C            5.00442691534392        1.26829100363594        0.21085384995845
C            6.22824302407126        1.86107462118795        0.41721459038311
F            6.94191350517105        2.30021294639000       -0.64511408050072
C            6.66003751399743        2.11624952313997        1.72760142969968
C            7.97445692664136        2.72250905372433        2.01372957957179
O            8.13184796293513        3.38349556714552        3.02675115575926
C            9.09585705182359        2.53507237423172        1.06755371396235
C            9.92185534554168        3.60537047085618        0.75038047541877
C           10.93921696692104        3.48709804907305       -0.16726199471535
F           11.69062634104359        4.57309617873299       -0.45135226515195
C           11.16842660226940        2.25202765459027       -0.81012698669399
N           12.16587410666735        2.10902848670168       -1.78478060633528
C           12.28945068420960        0.89064047785046       -2.60867789022945
C           13.15468676010124       -0.16408027489328       -1.95294472343969
C           13.16119916259082        3.15352881448614       -2.07625704352573
C           12.66459274292514        4.15170225389651       -3.10121297337944
C           10.36153232685585        1.17084379083834       -0.44712968304292
C            9.35639076744225        1.28739825255869        0.48376583620958
F            8.68870924048634        0.18481234616084        0.89735389356154
C            5.79878042939704        1.82823772595095        2.77699567609896
C            4.56528353865121        1.25837771968335        2.57178962495060
F            3.78639637608448        0.98436503290280        3.64433330846363
H            2.96590515198585       -1.90069707493144       -1.58250733253461
H            2.96094371455185       -2.24931728557489        0.14658930866383
H            4.31297556976376       -1.39262297933981       -0.56334278238419
H            1.44871126754741       -0.30128041524846       -0.36047081949014
H            2.77134871474836        0.56803809434542       -1.07210603923184
H            2.37214275082706       -0.27889157100800        2.93959462476284
H            1.15850739767040       -0.59274847761929        1.72533988906655
H            1.90169221742573        2.18714612729063        2.78690934603515
H            0.42241466053893        1.31276189779197        3.18355856042026
H            0.70167846463523        1.89181719462152        1.53933147981786
H            4.71580205859993        1.07332449309777       -0.80349925326449
H            9.74983222032969        4.55788034422302        1.21592988010473
H           12.69794896249434        1.17550028875426       -3.58388220970249
H           11.28463931437408        0.51161198197709       -2.81973914052624
H           14.17036742123823        0.20403430436710       -1.80060694757181
H           13.21538221412021       -1.07380615457270       -2.55300573622448
H           12.76587476788918       -0.44084570718443       -0.97262340769036
H           14.08458774017097        2.67095687152785       -2.41415206847995
H           13.41475936451422        3.64923103601065       -1.13340595085827
H           12.40840197361264        3.65967130346379       -4.03975687594591
H           13.40791966334432        4.92144011813405       -3.31612280229932
H           11.76256918514193        4.64910438639130       -2.74253157607984
H           10.52975135669236        0.20272982398649       -0.87672521758187
H            6.10710887047824        2.04900205493102        3.78267469792313
