57
 energy: -10.347805392668 gnorm: 0.000495192452 xtb: 6.5.0 (97a52f5)
C            1.56393892288016       -1.56871913931855        0.04671196179254
C            2.01966277169847       -0.12726345288707        0.14027063866107
N            2.51623689176953        0.38821717183546       -1.14731949899658
C            1.47524090433000        0.80265125945892       -2.11070080211310
C            1.50842451034961       -0.01860800641274       -3.38424004974158
C            3.89449656411422        0.49832443490520       -1.43820957263006
C            4.33425099360907        1.38529188815405       -2.41145446370656
C            5.67301714533517        1.53824089865528       -2.74923102298467
N            6.01491557872125        2.48164681721133       -3.75411040000035
C            6.97251157452953        2.46950099812523       -4.76270815760952
C            7.87470628853774        1.29840929243634       -4.92839237984261
O            7.07306448146932        3.41066452925481       -5.52192200277534
C            6.62782828700728        0.77499467636547       -2.04519373567985
N            7.97183876222042        0.92726277647498       -2.25192011590455
N            8.78787535123036        0.16741960354196       -1.69723131624299
C           10.15196035958027        0.33464878072797       -1.81339548779331
C           10.90301381900321       -0.84460368812959       -1.69631378086962
C           12.23662874916437       -1.03357017427476       -1.59553052503350
C           13.24974187519830       -0.12604811355325       -1.43111473170119
C           14.46291362231582       -0.36024255973822       -1.43345063715058
O           16.95868675351689       -9.66684259966832       -5.08044993374788
N           16.76867563628565       -0.28236094342192       -2.15119509719990
N           17.04598761327463        0.66641002141693       -2.83920242622092
C           17.86156019519402        1.21905515459395       -3.43705090684066
O           12.38052997261808        3.00791290542695       -2.98035707971532
C           11.87171929873204        1.94184642902528       -2.57810525425442
C           10.63956002676113        1.64008843344539       -2.08658301472997
N            9.73608333811668        2.77449849074107       -1.87522248443799
O            9.46073929430141        3.49692880871661       -2.84460937381109
O            9.30380886935529        2.99091741943493       -0.73274568679950
C            6.19471546396046       -0.12413434409221       -1.07483865398792
C            4.86193310635148       -0.29006216044086       -0.75085026820106
O            4.42410451071817       -1.20966109724123        0.21265951154975
C            5.43876595453284       -1.88383361404906        0.92022780078675
H            1.22639023589965       -1.95484691089396        1.01058420916674
H            2.38241209389075       -2.20231055104430       -0.29918010251648
H            0.74334455510218       -1.67925577168990       -0.66288887320329
H            2.82659728426970       -0.02089681471652        0.87334287226241
H            1.21150354191894        0.52459511099377        0.48835208099928
H            1.59757367961025        1.87059093609355       -2.31567821604977
H            0.49778376483078        0.71048220558628       -1.62615236355855
H            2.46972466885736        0.07335099498551       -3.89073716694794
H            0.73154804551153        0.28612276983587       -4.08839831057625
H            1.36484976497234       -1.07786903126599       -3.16755686424376
H            3.61756327567703        1.99288614503009       -2.92883874808598
H            5.42266164247711        3.30179282141000       -3.79598552487495
H            7.42344580390674        0.39223711883011       -4.52686944351978
H            8.81582966222053        1.47686306936750       -4.40961269902111
H            8.09175392888523        1.13590475608885       -5.98332680286360
H           10.30991565479168       -1.74451134689922       -1.64179934964554
H           17.75775492623024       -9.78800183995012       -4.62853641663043
H           15.88539218839642       -0.42910793456119       -1.79744418653637
H           19.16174891105898        1.76173998152001       -4.18757026983956
H            6.94726863272853       -0.69298866891054       -0.56660919877471
H            4.96483812582620       -2.51323945705600        1.67487055545905
H            6.08574478204869       -1.15946104835755        1.41783839263074
H            6.00614734077772       -2.51563743014773        0.23493537357479
