41
 energy: -8.403208692617 gnorm: 0.000398171185 xtb: 6.5.0 (97a52f5)
C            1.49366025335252       -0.15416573825187       -1.02110519147451
C            2.31372593136721        0.09304695760605        0.22864491417234
N            2.81549917730846       -1.15407859411850        0.84449841844513
C            1.81923578427875       -2.17215191473300        1.23980843021320
C            0.73064343679832       -1.62718345258547        2.14193423367426
C            4.20643733731962       -1.40635302177591        0.96558289192756
C            4.71231056422563       -2.70060906537579        0.81249134847489
C            6.07036647213761       -2.97344017715209        0.92866041852909
C            6.60255653513624       -4.29342280208566        0.76575541371289
C            7.92633550896730       -4.53474147964646        0.88550836608438
C            8.84936855110012       -3.48106930229989        1.17986128552068
C           10.21815081970393       -3.70461223411533        1.31280629973368
C           11.09673088598865       -2.66694083028546        1.60016863648041
C           12.47303501574351       -2.92119905149025        1.72962394225258
N           13.60963834747480       -3.13279295166894        1.83643973292078
C           10.60306547467651       -1.37756228804657        1.75856318054511
C            9.24310251603966       -1.10078305630723        1.63520674976534
C            8.71248281832208        0.21907867216395        1.79447303303821
C            7.38941641313890        0.46214924612262        1.66983267681462
C            6.46499860537035       -0.59143971246202        1.37356897072949
C            5.09916222989332       -0.36700932966671        1.24403874340080
C            6.96140598565869       -1.90918155430354        1.21427712018583
C            8.35409886720196       -2.16407727588291        1.34285692451969
H            1.17662702628392        0.77764111189041       -1.49390662785224
H            0.59453530786439       -0.73058082536966       -0.80135060884696
H            2.06823451570310       -0.72043645541531       -1.75566884389248
H            1.74031864228819        0.64397274404267        0.98097812537438
H            3.17181690106871        0.72699843938731       -0.01485039822628
H            2.34776339848569       -2.98126895709950        1.75341842415932
H            1.40008101981811       -2.61565949664531        0.33133251398803
H            1.16120465510827       -1.15458612319611        3.02581803727552
H            0.05074748894707       -2.41101568558016        2.48231487759352
H            0.12850153927530       -0.87371390858756        1.63330045832618
H            4.04263343318798       -3.50235400024325        0.56349696971036
H            5.92275916174784       -5.09779555083364        0.54466517613503
H            8.30879364780111       -5.53279658546326        0.76060168349525
H           10.60546262671058       -4.70018363619279        1.19153486496890
H           11.28690785784016       -0.57841789647733        1.98119855679711
H            9.39256000958940        1.02263296875288        2.01763543968803
H            7.00798769166021        1.46088029387174        1.79274162591822
H            4.72043754541537        0.62537251951946        1.40199318572321
