40
 energy: -7.872640759562 gnorm: 0.000537880032 xtb: 6.5.0 (97a52f5)
C            1.45817363318344        0.19556542822587        0.86993319366360
C            2.38950822575057       -0.23834532932324       -0.24421330701939
N            2.89507255254124        0.89143037635510       -1.05309392394715
C            1.89844128266618        1.80208833456551       -1.65592500162854
C            0.87563816675262        1.08377139523080       -2.51316628821381
C            4.28707177266768        1.10038519872455       -1.23453797813081
C            4.80752770287471        2.39385143953829       -1.34123837271734
C            6.16779449438184        2.62311330800907       -1.51748347850173
C            6.71463343634812        3.94369643769519       -1.61905614706162
C            8.04059279322035        4.14229140949878       -1.78987162098286
C            8.95202916847567        3.04106063242313       -1.87538569356377
C           10.32513810514695        3.21807128211702       -2.05392627538911
C           11.17303921353353        2.13159280494493       -2.13205518095273
C           10.68305943536330        0.84468133643801       -2.03587703115162
C            9.31845944070442        0.61159160645180       -1.85645170680736
C            8.77196040362932       -0.70801264223685       -1.75260557537416
C            7.44653010643032       -0.90649621213848       -1.57749049864055
C            6.53500300462917        0.19563744246934       -1.48934788716397
C            5.16757923102593        0.01666299304321       -1.31002459612420
C            7.04623642578805        1.51342541936386       -1.59376576861358
C            8.44218297926616        1.72249381916261       -1.77574287474979
H            1.14992152405838       -0.64428070197848        1.49680945625523
H            0.55194573771934        0.65869010614161        0.47705339087210
H            1.94070689341584        0.93086561300771        1.51638980849553
H            1.90368042374525       -0.95404009194958       -0.91537456346158
H            3.24895210337137       -0.76547784195217        0.18225721682631
H            2.43172552952604        2.53942020334284       -2.26421432110731
H            1.41842954558253        2.36981308746979       -0.85219288321171
H            1.36410795237370        0.50529287007898       -3.29915805853035
H            0.18381745642126        1.77863934090890       -2.99441867407574
H            0.27882664107826        0.38581960447669       -1.92470034198331
H            4.14815202868062        3.23666909046211       -1.24887991756378
H            6.04409382381636        4.78340472153375       -1.55726436438516
H            8.43383364557566        5.14142145583790       -1.86475239019374
H           10.71784641081501        4.21746725586718       -2.13035342600057
H           12.23026782259212        2.29002502192710       -2.27037256765537
H           11.35323760885633        0.00457231743601       -2.09872790220180
H            9.44207725220846       -1.54786844271250       -1.81659229179933
H            7.05336329706323       -1.90555121870123       -1.50099324526472
H            4.77743272872011       -0.98306887175583       -1.26591891194460
