37
 energy: -6.643391210419 gnorm: 0.000632605972 xtb: 6.5.0 (97a52f5)
C            1.18446560190923        0.32111928953925        0.75079154647465
C            2.23779708390449        0.63181471807396       -0.29337615774514
N            2.72385608878997       -0.56408141401027       -1.02138192155735
C            1.77953698902814       -1.09693162813394       -2.02280460025542
C            1.82862097045309       -2.60692350015169       -2.10434949839204
C            4.12058678666294       -0.81921809690020       -1.14196300410572
C            4.71747582592321       -0.85869280479889       -2.39672006317357
C            6.08408730243638       -1.05285177900021       -2.56883664624867
O            6.59626705210287       -1.07018450466815       -3.86013897139611
C            7.95231989228512       -1.25844049016109       -4.03547434175520
O            8.47180710545515       -1.29178126241411       -5.14577326411171
C            8.79302876063873       -1.42271292702598       -2.87002253528547
C            8.30490172423334       -1.40709233164828       -1.61354992089998
C            9.21372435590771       -1.58284247651139       -0.44646204287069
C            6.89552674188615       -1.21957059458937       -1.42906325784771
C            6.28994651585861       -1.20363091761107       -0.16383496293788
C            4.93800396345772       -1.02401625786944        0.00009212498860
C            4.34418008919540       -1.08881443639310        1.36124929726013
H            0.86138267670002        1.21864398835544        1.28214800507348
H            1.55641581535234       -0.38323550107623        1.49440003543434
H            0.29867218331965       -0.12991463208721        0.30280987196915
H            3.10239195113759        1.12778394316263        0.15873091371748
H            1.85265345287139        1.33918605086114       -1.03552655063204
H            2.00153411291189       -0.63798005003124       -2.99090390468907
H            0.77012744721336       -0.76177785872203       -1.76576647596834
H            2.82464522379941       -2.95301809950196       -2.38298571363345
H            1.12274240368056       -3.00336182444180       -2.83701924525199
H            1.59349586575430       -3.05460539161573       -1.13791083561601
H            4.12020595457786       -0.70580446449751       -3.27428914131850
H            9.84469154972668       -1.56162669216696       -3.03533333108723
H           10.25305745224817       -1.67724003456019       -0.76251230424283
H            8.95678805634281       -2.48148563459273        0.11523211463531
H            9.15205005895724       -0.72806655484403        0.22782990308254
H            6.90059842627993       -1.35016918377718        0.70820923290159
H            4.99559787093280       -1.62836769297848        2.04985053491415
H            3.38977237402839       -1.61452943567395        1.33875198459791
H            4.18346427403485       -0.09126951754306        1.77022312597511
