51
 energy: -9.189055664743 gnorm: 0.000839715345 xtb: 6.5.0 (97a52f5)
C            1.79687891787257        0.80256996180174        0.42855630324088
C            2.31199771006287       -0.24101562886473       -0.53941318120808
N            2.98590720035810        0.36059854437324       -1.70691781030422
C            2.13539843605906        1.07969410184079       -2.68088676909728
C            0.90184949167754        0.31056992369976       -3.11067721012846
C            4.38822500622369        0.52648443970903       -1.72245728650743
C            4.97413823688100        1.65930642021908       -2.27422666833560
C            6.35202418508006        1.85161358300653       -2.28637570871219
O            6.86399110734024        3.01638053991421       -2.84568485002756
C            8.24203469954999        3.19672871902944       -2.84657727685114
C            8.76729090878066        4.35931491310901       -3.40113823915782
C           10.13384764193984        4.60530908526233       -3.43911651929179
N           10.65960585978097        5.79797915793682       -4.01215048580470
C           10.50118961878085        7.11047954852838       -3.34256441231521
C            9.06777493852971        7.46626078923916       -3.01168589012381
C           11.82245242109916        5.71951656945195       -4.91676512356548
C           11.46432303822110        6.11646686157857       -6.33276550224534
C           11.01112567964160        3.63446160875580       -2.90243564665603
F           12.34757397812593        3.86335875335973       -2.89736096171569
C           10.50254418856274        2.48497935291047       -2.35551397928444
C            9.13275270211211        2.24536379354323       -2.31118241459242
C            8.61714424498508        1.02238932976577       -1.72194179407480
O            9.36189674905689        0.17207690953988       -1.24910788978690
C            7.17441214236711        0.85711587397945       -1.72319708390976
C            6.59343046316251       -0.28131377092950       -1.17546253195237
C            5.23441314846378       -0.46564472848266       -1.17312444588172
F            4.71881817044140       -1.63151107709036       -0.71148043597912
H            1.33407263040860        0.35321833033593        1.30913461207783
H            1.05287957609960        1.44559667433388       -0.04216942892506
H            2.60794086062658        1.44650833858460        0.77093423968217
H            1.50717838852742       -0.89174211956814       -0.89319921612525
H            3.02067055911896       -0.90417301484043       -0.03651273448168
H            2.75181721024255        1.29581171699074       -3.55936557993152
H            1.86611914323014        2.04931809562217       -2.25030899892739
H            1.17166424688748       -0.68024110513352       -3.47941288146317
H            0.35953449426173        0.82347682092782       -3.90764628431663
H            0.20398829986311        0.17405587228501       -2.28367788707434
H            4.35756618020623        2.43979888966210       -2.67678444569286
H            8.08898081529849        5.06472241393778       -3.84113823833458
H           10.94058911357591        7.87705106097253       -3.98966177614444
H           11.11578748001160        7.09023408992630       -2.43571637629474
H            8.44613686389584        7.45740124265963       -3.90799702855099
H            8.98690017482970        8.45904026360105       -2.56452195579815
H            8.63823155259742        6.75626641946073       -2.30407267757568
H           12.20617836532382        4.69421751828748       -4.88970542045599
H           12.62286553353487        6.34851469086143       -4.51366964904545
H           10.67966533002534        5.47057936349289       -6.72925990203406
H           12.32073465632174        6.05346454018696       -7.00666790185212
H           11.08623720474714        7.13900714894869       -6.37013283728921
H           11.17681170755004        1.75575174788729       -1.94584634907532
H            7.22549872764152       -1.04254257461978       -0.75666746810694
