51
 energy: -9.312463361254 gnorm: 0.000741800247 xtb: 6.5.0 (97a52f5)
C            1.67608433821585       -0.34849832687708       -1.55009443186073
C            2.06426672903137       -0.26570493499189       -0.08942825976280
N            2.66401533626888        1.03242031857152        0.26119302943012
C            1.70852105643710        2.12037454971574        0.55181600218181
C            1.76144002200586        3.22668986565831       -0.48182838444419
C            4.05418448684744        1.23760597230929        0.29417496036041
C            4.59729129984350        2.34959276421443        0.93346651197900
C            5.95751980471329        2.55439574592998        0.97176924394043
S            6.50921326978395        3.90931657506082        1.76669315515572
C            8.17190658502370        3.97978570223020        1.71858459197973
C            8.78107027526442        5.04263963261267        2.34564472899814
C           10.16775131455978        5.16867645020093        2.34669760449849
N           10.81898036304641        6.25438030688836        2.99438448634402
C           10.79599677568038        6.39278330572179        4.46999315613025
C            9.41665880089244        6.63421940983250        5.04506667217643
C           11.95740658371492        6.92186059066132        2.33587692398155
C           11.68548423882820        8.38874589678820        2.07848291451504
C           10.92896248157575        4.18119176090129        1.67586370313270
F           12.28218749476900        4.26005768461162        1.67697557631224
C           10.30021346174355        3.12983015448208        1.05602988229573
C            8.91078037946494        2.99559093204455        1.06269459231943
C            8.29809844499265        1.85097186413447        0.38903291863873
O            9.01521643821312        1.02969159523501       -0.17313211581291
C            6.84736126151465        1.66551964138541        0.37297238394672
C            6.30487031758459        0.55243886909663       -0.26940857497195
C            4.95022334559809        0.32825068095085       -0.32118271945926
F            4.48986984011531       -0.74821748276326       -1.00361100967578
H            1.25455719312002       -1.32207940060994       -1.80764775263462
H            2.54700527243190       -0.18474423381223       -2.18639209323967
H            0.93818016846184        0.41256430370023       -1.80569809238814
H            2.78537590832014       -1.04841905988593        0.16865875150794
H            1.19907349603496       -0.43752735089232        0.55961731077011
H            1.91362639358162        2.50059480185404        1.55744709452761
H            0.70056225742554        1.69567411604183        0.60197276940790
H            2.75608387114514        3.66980793520441       -0.53802183815371
H            1.05430005453947        4.02870569502451       -0.26115569760565
H            1.52946097880757        2.84299141752433       -1.47591154828218
H            3.96690702382807        3.06561654434662        1.42917060632428
H            8.16287917093602        5.79406585547707        2.80324280920636
H           11.46730785731495        7.21303361387072        4.74529564158814
H           11.24178078193481        5.48558282092508        4.89222828352060
H            8.93694348625463        7.48699186640135        4.56233729722321
H            9.45238172791208        6.83775903586811        6.11745943902606
H            8.77035760259955        5.76716393764932        4.90512346709024
H           12.15892017897548        6.39837774975204        1.39528017958946
H           12.85041658813963        6.77931817482795        2.95407183748090
H           10.80336001078973        8.51376721571060        1.44853669947439
H           12.52316861909769        8.88116159397950        1.58056819584955
H           11.49270584837069        8.92338829428552        3.00930249009842
H           10.89424083358451        2.38687918275924        0.55649452520690
H            6.96650993066635       -0.14739363463107       -0.74575791793669
