48
 energy: -8.953813245393 gnorm: 0.000392223347 xtb: 6.5.0 (97a52f5)
C            1.48046019041835       -0.68528694521691       -0.22671771767696
C            2.30502284794433        0.40244218116878       -0.88549676114166
N            2.92905358871931        1.33112628130543        0.08116275149198
C            2.04357966096751        1.97502028836221        1.07626713725364
C            0.92015183698050        2.76857842000604        0.44073158655723
C            4.30086182472022        1.66786308811177       -0.00886948822495
C            5.04290124801549        1.99109133078318        1.13324447397665
C            6.37402422296320        2.31199171242899        1.04768392744834
C            7.03275724467899        2.32941333665419       -0.18516039555630
C            8.44133640310503        2.66416137262601       -0.30015115170455
C            9.29552961054067        2.99795922555748        0.71504291552004
C           10.63107350070310        3.27354918589021        0.29510325471279
C           10.81475421588091        3.15226641103343       -1.07029117958698
S            9.31366262432339        2.69814584741562       -1.81220118346947
C           12.07049475279075        3.38299567064765       -1.67438997658059
C           12.26711800988412        3.25011599916031       -3.14172923046194
O           11.34315094595115        2.95780723840780       -3.87924133673137
O           13.54628345204514        3.47849912620577       -3.58103459540905
C           13.62071373868145        3.32455665887092       -4.96594893761223
C           13.11374064684797        3.73300481736759       -0.86982349243312
C           12.97401913532156        3.86979662810877        0.55123565147425
O           13.93890166447941        4.18443330237868        1.25184811067424
N           11.71496040950532        3.63432809305727        1.11282220320456
C           11.55361140441640        3.76066640262903        2.54920666069665
C            6.29176751128133        2.00814743529320       -1.32475341579411
C            4.96196506626665        1.68413984542991       -1.24225463689281
H            1.09444317777592       -1.40223011012315       -0.95403068241292
H            0.62462103412900       -0.27210097470175        0.30741403297101
H            2.07881322595575       -1.23813121149309        0.49856792073503
H            1.70500476170823        0.98884035501451       -1.58820696919587
H            3.10293048144923       -0.05526848207706       -1.47815419599182
H            2.65022214658469        2.63657962937373        1.70123177523362
H            1.65798179880687        1.20159428353734        1.74751300146243
H            1.31662484991690        3.52020288632840       -0.24310277456379
H            0.31137444034481        3.28492914872408        1.18551940780523
H            0.25420034802348        2.12710058685589       -0.13676786098304
H            4.56852665365207        1.94443518479588        2.09707289736458
H            6.92263739538304        2.54707535569593        1.94229774734791
H            8.99628342458088        3.05572120850896        1.74741269207173
H           14.64048598721135        3.53349015833535       -5.29612725706524
H           12.92830684475507        4.02073482927285       -5.44434219330003
H           13.34974256955275        2.29990067670065       -5.22964816061735
H           14.07843236572982        3.91200963696944       -1.30580429840009
H           12.50494650300725        4.03222787210509        3.00301215421997
H           11.22100005483397        2.81517256685586        2.97293323846899
H           10.82311708394965        4.53427597998588        2.77738263334337
H            6.78457044880582        2.02218061159585       -2.28109572263127
H            4.40746864641757        1.47530685406000       -2.13953255959439
