48
 energy: -4.799165846440 gnorm: 0.047035345029 xtb: 6.5.0 (97a52f5)
C            1.83843929649923       -0.02582292986447       -2.13297223512670
C            2.75671424747149        0.16429491438561       -1.09101986525366
N            2.91556691580106       -1.01355682730493       -0.25043502788651
C            1.84012256114280       -1.36428172259010        0.62346674370851
C            1.05092276197787       -2.46303962668342        0.21262960180188
C            4.14408658652114       -1.53794799089175       -0.07031681638762
C            4.50341021408200       -2.46382098066807        0.80436846363863
C            5.71158169487087       -2.90432612914036        1.04147465243854
C            6.84837508936266       -2.48513962671265        0.51218835496249
C            8.11515947052895       -2.88499730727182        0.85120080888774
C            8.44580380332956       -3.69830276728335        1.80077867635439
C            9.74417430053522       -3.99226069719881        2.01682290327185
C           10.72282890123420       -3.37906921143990        1.31150746158412
C           12.03655056412780       -3.77442875849816        1.42036147043006
N           11.70173207518437       -0.90916837684759       -2.87029750935676
C           12.91416743155067       -1.06170756136063       -3.36584747988648
C           13.27237101487856       -0.85604703973138       -4.52059465108649
N           21.15402273921234       -0.66612085535249       -5.13652666282044
C           14.74766807746157       -5.77193273615464       -2.14484162933995
C           18.16471637589428       -3.13221407476314        1.01297728485831
C           18.35530338253312       -3.97675530347769        2.08437311809715
C           19.53976420532976       -4.20794374579620        2.44923075757115
C           17.30581527071910       -4.51830744836936        2.69658180556543
C           16.03049614155162       -4.28334264474532        2.31794285237409
N           12.03151727791718       -7.81467408988786        4.12096525591605
S            7.78102230915755       -3.07541119908643       -4.53315715734818
C            7.86403537793653        0.10584663101658        1.75283061659539
C            6.63221872844028       -0.76654628885732        3.35815026535153
H            1.59587173583339        0.86318687767361       -2.62701182154559
H           -1.81559553474808        0.79183869377977        2.60996688906785
H           -1.91507630338424       -0.09830306582107       -5.15136855972482
H            2.12222922465889        1.20159295970944        4.27402693058336
H            4.66054160276965        1.42547674553387       -1.88339865991097
H            3.68749995416064       -5.29877331458410        4.09374130646699
H            1.57592937617519       -3.30405891903304       -0.16095008399717
H            0.24186048631314       -2.73906921709971        0.87376048198315
H           -1.01029695035572       -6.59432355061010        1.37753260518174
H           -0.62832892427124       -2.08865700008068       -1.57071379591456
H            3.68427109788994       -4.12329437254193       -2.76590414467185
H            8.06920047672822       -5.27173461648440       -1.89312126420632
H            7.61060858798562       -3.77737143513375        4.13475695303575
H           10.75097481210529       -3.38215904845935        4.19837272843464
H           17.21504936420361       -2.88384526228764        0.64424279239514
H           21.18494718695876       -4.05144991656927        2.28938527494536
H           18.96484344388497       -5.17607934911701        3.64547051762370
H           15.39566514373938       -4.91338430593505        2.87201594789602
H           10.31801067838256        1.01144826219662        4.05532556257574
H            5.04401773407186        3.37193423569242        2.03935827853763
