60
 energy: -11.338064709320 gnorm: 0.000309963630 xtb: 6.5.0 (97a52f5)
C            2.59474359556461        0.55240591517457        1.06434976856754
C            2.38562139911128       -0.87188733503211        1.53580580738690
N            3.31691442650670       -1.82155382071954        0.89581173321352
C            2.72065221826781       -2.73233492224013       -0.10069972178993
C            2.67700332044745       -2.12960991063822       -1.48880514850890
C            4.70274125043859       -1.80073636546679        1.15389434414566
C            5.60470702731840       -2.48841251309619        0.33427690959266
C            6.95134994830357       -2.47596003963471        0.59630949085902
C            7.47154316437602       -1.78453658637419        1.69257237258556
C            8.90088786335785       -1.80669396754582        1.95947250830567
C            9.54106154062469       -1.31978736507724        3.06824107289851
C           10.94203135015346       -1.50578735042932        3.05410827713036
C           11.40773096542991       -2.13101182296957        1.93148874422099
C           12.79832257943713       -2.45898247630399        1.65578180661243
N           13.05746904888481       -2.94711296994420        0.42637989088150
C           14.30392901963493       -3.29129731865880        0.15765754318725
N           14.58278188244635       -3.89894159328626       -1.09341151018698
C           13.63595235552562       -3.67775852739912       -2.19191480413925
C           12.59590685865085       -4.79503541763640       -2.21790207376407
O           13.21655428955177       -6.07159943254254       -2.32526481947827
C           14.12803123090422       -6.31688363183722       -1.25831979378890
C           15.20801802533662       -5.23730173988213       -1.16995406227167
C           15.33392324378918       -3.08188327785460        1.11451021573000
C           16.69590248287165       -3.30854261382756        0.84915913540398
C           17.63958578479276       -3.09205481035494        1.81279018152858
C           17.26045743065442       -2.62749559963432        3.07285728230847
C           15.94769824200769       -2.36672902657687        3.34352851942380
C           14.95001015158743       -2.57253373733016        2.36820155175396
N           13.66523396396502       -2.26534370017025        2.63892085128614
S           10.07774007989617       -2.49404511773288        0.86719060039097
C            6.57392612520218       -1.09231889126643        2.51034431582458
C            5.22681194116097       -1.09878710185418        2.24573228662493
H            1.90953639167659        1.25043098525003        1.54968419565131
H            2.44267554456026        0.63451972589039       -0.01242662027733
H            3.61099958961256        0.89192454114672        1.26697246608542
H            1.35984898599782       -1.19392606588833        1.32840718553179
H            2.49869234454847       -0.95523137355109        2.62130499063803
H            1.71480536042930       -3.00509094591791        0.23596702099925
H            3.28416012210234       -3.67080644214737       -0.09119115030236
H            2.04717692652819       -1.23953044564686       -1.50993593450871
H            2.28241647377140       -2.82990983031919       -2.22790346262277
H            3.67107906856212       -1.82426167314320       -1.81729430288077
H            5.23988965223254       -3.02565455272775       -0.52229045115119
H            7.63021025330025       -3.01005416495327       -0.04502796448112
H            9.02479415331223       -0.85008845000184        3.89029934314220
H           11.59385680942301       -1.18943970373926        3.85339233789178
H           14.19390669843745       -3.65185421500966       -3.13297326904378
H           13.17015149319044       -2.69410356817242       -2.06652092230037
H           11.89795946597174       -4.68678264515582       -3.05823309813140
H           12.00038083330134       -4.78968498499467       -1.29738763623580
H           14.56154071750599       -7.31311308429898       -1.41536745560057
H           13.54744963018506       -6.36156895797912       -0.32951687407688
H           15.85674348914120       -5.26895407821029       -2.05023118418379
H           15.84315197004962       -5.39977523607345       -0.29390938225000
H           16.99424359047356       -3.62279923675945       -0.13498895343706
H           18.68032662730309       -3.27334194038827        1.59980809934706
H           18.01001132563148       -2.46286084697859        3.82942249473569
H           15.65182126325595       -1.99189881445836        4.30745092263183
H            6.94741230317441       -0.54428962706696        3.35702949319132
H            4.56009611011300       -0.56616130063967        2.89950683573247
