85
 energy: -18.037552430836 gnorm: 0.000653087865 xtb: 6.5.0 (97a52f5)
C            1.67392091175956       -0.01184633269605       -1.16006478951056
C            2.00448905688587        1.35675657252061       -0.60085594355852
N            2.65220493399306        1.28124098149679        0.72761981593173
C            1.83540813553522        0.77055450092634        1.85004321810503
C            0.47518889960235        1.43032824443669        1.97130002884034
C            4.05586654984214        1.41973376474045        0.86336527445331
C            4.77362658689082        0.63636699785657        1.77489259735380
C            6.13180972040342        0.77175139771620        1.90645918943258
C            6.83569014908441        1.69559578812214        1.13817832993784
C            8.28829020073857        1.84390423177001        1.28581573420450
N            8.87600121796805        2.78658126704266        0.57103578650873
C           10.17892527461171        2.89161222644018        0.75405228556695
O           10.88675165956565        3.86416289220122        0.04174187697467
C           10.19661011602324        4.89876940578676       -0.59652184528729
C           10.82403412874373        5.55369562260272       -1.65965073926970
C           10.20595161226097        6.58426593693351       -2.32053427707809
C            8.93407680496689        7.01254838437877       -1.94280083738114
C            8.24976723011913        8.09848623141560       -2.63397914000304
N            7.04965806472382        8.53958757138430       -2.28699146164367
C            6.74465313942219        9.54052896399626       -3.15639951067478
C            5.60541763411162       10.34969844278174       -3.25104913835366
C            5.54263406388070       11.29744599656577       -4.24056662570144
N            4.35419882487958       12.14085793344794       -4.34872022151216
O            3.43503851757548       11.97769703946508       -3.53144269077104
O            4.30541884901401       12.98895346289222       -5.25268128871895
C            6.60150406821073       11.46292485331503       -5.15042748107197
C            7.72677854720398       10.68910448395218       -5.08260499565183
C            7.80460709074160        9.71652146511219       -4.07747576814299
N            8.75636350044435        8.79028721930756       -3.73177229224733
C            8.31205937320901        6.37235437956190       -0.87296266849085
C            8.92854165463936        5.34049507969116       -0.21461855067332
N           10.88864386659918        2.12284208422777        1.56219724504749
C           10.20491052323312        1.19872312260648        2.21544078183384
O           10.94039443240590        0.36832930874222        3.06807641979816
C           10.40959818323686       -0.85936313169623        3.47181314359102
C           10.96691867487692       -1.48393023406526        4.59087476252845
C           10.51367754864333       -2.70545960352954        5.01976296631680
C            9.48528264697269       -3.36125030820426        4.34428401274910
C            8.98496280003025       -4.66167887342840        4.77313957487194
N            7.99333564251465       -5.29425343703015        4.16348119814943
C            7.81795926848359       -6.46468610627440        4.83361709795275
C            6.91560495029778       -7.51288917053426        4.61395155857137
C            6.95125852100614       -8.60590482721044        5.44161776383710
N            6.01235506575364       -9.70284210111196        5.21702311214529
O            5.18745541350748       -9.59839703064848        4.29589378459008
O            6.07220620641753      -10.69896593811129        5.95389945926133
C            7.87603778678765       -8.68199874208454        6.49785418921036
C            8.76905282423619       -7.67447443178153        6.73706362212685
C            8.74418346490547       -6.55131005177757        5.90012963060739
N            9.47874650997318       -5.39288953269106        5.85104521016583
C            8.93094894070951       -2.74399368310894        3.22505649760413
C            9.38157486385148       -1.52202754842453        2.79911565153936
N            8.89950323289146        1.02564196220429        2.12345337437313
C            6.12757853590914        2.47955641574477        0.23068186831585
C            4.76960655597637        2.34616730969118        0.09412742662181
H            1.23574827900301        0.04817015847999       -2.15827883363548
H            0.96584916109858       -0.54089535088692       -0.52166895438047
H            2.57099996274756       -0.62893593004283       -1.22611948842517
H            1.11107620773153        1.98256734628438       -0.51882106965516
H            2.66965488360865        1.88812494093230       -1.28634961842894
H            2.40191874251004        0.93705140852819        2.77181310914815
H            1.74170188863905       -0.31420785391009        1.73959051730028
H            0.57453424075498        2.51553115678102        2.02011847153422
H           -0.05596286358488        1.10547054885932        2.86830145930823
H           -0.16226545200351        1.19758652129443        1.11792932649419
H            4.25522297198823       -0.10536286157963        2.35592114121421
H            6.67619898605256        0.16346903432249        2.60727102518581
H           11.80597094820441        5.22445974610246       -1.95056813431945
H           10.70516282879725        7.07112276463727       -3.13883419134891
H            4.79091406698646       10.22914012599150       -2.56165498346466
H            6.50535132115734       12.21932670264278       -5.91044843246432
H            8.53910173534008       10.81062744313783       -5.77661539252286
H            9.64861765655914        8.65461812768921       -4.20439696005713
H            7.33265760428348        6.70301804370941       -0.57340783339875
H            8.44061316860809        4.85720031601289        0.61121519236405
H           11.76502348189861       -0.98144012774754        5.10829663550577
H           10.95502069938687       -3.16679306024359        5.88480646724844
H            6.20565618256285       -7.46295608103076        3.80983474013378
H            7.86563436086541       -9.56034186527644        7.12024378175699
H            9.47923440747075       -7.72835106437701        7.54260964062075
H           10.25051029531881       -5.15525088038694        6.47225170271550
H            8.13879407135216       -3.24702219862180        2.69804379331754
H            8.94756843586263       -1.05857332760569        1.93327349881923
H            6.66798513316574        3.19800817916225       -0.36022337428569
H            4.23912361728676        2.99279758046404       -0.58153745973384
