81
 energy: -17.090603389570 gnorm: 0.000832027603 xtb: 6.5.0 (97a52f5)
C            2.16144401822519        1.22010732587478        1.48588702010821
C            1.83300447110258       -0.13219133256980        2.08396620582038
N            2.54038095292509       -1.23504936591602        1.40447557943188
C            1.69724231396041       -2.14199663244599        0.60222601240784
C            1.45126226479766       -1.62166344561933       -0.79760155035492
C            3.94399103645711       -1.36469983865519        1.45171848373511
C            4.63049880246377       -2.17085463300037        0.53648995261855
C            5.99634568474111       -2.29124856119568        0.58374131173992
C            6.74005315520933       -1.61966136650930        1.55064234219754
C            8.20152820637828       -1.75384390409834        1.60716318052149
N            8.82511312029602       -1.14504601783489        2.60127975058061
C           10.13465328865012       -1.31466698849442        2.62140899925418
O           10.87588413419503       -0.72482147663769        3.65485389745172
C           10.23243628830427       -0.35196325499795        4.84022515807761
C           10.85131341762007        0.59343397198414        5.66296980007635
C           10.28498397880572        0.97765134046947        6.85191255734533
C            9.07539810620850        0.42885441489953        7.27682735231395
C            8.45993925573424        0.81315983933497        8.54166999951755
N            7.31319667631424        0.31146043739086        8.98076902142743
C            7.07607616420553        0.90177945719267       10.18485331059850
C            6.00856491498879        0.74812738261348       11.08475093978794
C            6.01272522749361        1.47668150380014       12.24428668350519
C            7.05642408906643        2.36679115039861       12.54338770356633
C            8.10884762163704        2.53877195567724       11.68390943714934
C            8.12337543261219        1.80262659000149       10.49374412566266
N            8.99961916184109        1.73466960335164        9.43674535799241
C            8.45840726387336       -0.51875830390258        6.46237551766513
C            9.02333545276177       -0.90057978720368        5.27314814146394
N           10.81993827464615       -1.99810141026935        1.71984639250171
C           10.09839670578827       -2.55089583041445        0.75848751798823
O           10.80523845071220       -3.28124339834725       -0.20737380350416
C           10.21990092866956       -3.53146514455373       -1.45321604641974
C           10.73167656208365       -4.57644574856297       -2.22759742274196
C           10.22477182287518       -4.85045187285775       -3.47236663662434
C            9.18615584806425       -4.08690993182335       -4.00398292693554
C            8.63845480261455       -4.35524071423209       -5.32848478737261
N            7.68061466252116       -3.62785086480341       -5.88768425890285
C            7.44581151336733       -4.18271861304490       -7.10904191092170
C            6.54523407040512       -3.81656450841870       -8.12274677540864
C            6.51343581635579       -4.55481556382411       -9.27575268240237
C            7.35838768954860       -5.66104907895297       -9.45791933503146
C            8.24654339500248       -6.04112306386197       -8.48723063562547
C            8.29514489860892       -5.29848473045543       -7.30207651033919
N            9.05116989592377       -5.39571248227853       -6.15835341839129
C            8.67654529864629       -3.04076141905197       -3.23703713136879
C            9.18024084017863       -2.77007080483903       -1.99100212443100
N            8.78320815906653       -2.47388887181207        0.66340056298873
C            6.06341722121330       -0.81945815186734        2.46755617902024
C            4.69871528972804       -0.69152470269133        2.41895115146174
H            1.63987585123168        2.03211589450225        1.99596320517260
H            1.88458907437779        1.25886832952812        0.43199787990827
H            3.23052143449114        1.42790672056868        1.53953259696238
H            0.75605076857695       -0.32104987256124        2.02809246659301
H            2.07827443461213       -0.16941563495066        3.14960942131551
H            0.75141090834152       -2.29309427788100        1.13282312348481
H            2.17190609720090       -3.12789371749040        0.58376214372361
H            0.91345673009855       -0.67346035591928       -0.77367176213315
H            0.86292862903638       -2.31918392538564       -1.39674364832077
H            2.39051712358359       -1.44269185056742       -1.32164139593701
H            4.08220790460009       -2.69097502876211       -0.22761665109813
H            6.51515995788235       -2.90847183564558       -0.12829289505307
H           11.78744710364978        1.01359356477554        5.34039558581437
H           10.77805960100884        1.70714673959085        7.46865708759237
H            5.21180678959171        0.06524354597349       10.85091619834525
H            5.19979581413156        1.36582627148607       12.94270751811990
H            7.02712847960440        2.92323676996461       13.46557033841251
H            8.91248053926219        3.21853194434812       11.90346093944055
H            9.85836313072561        2.27493274708317        9.34387567574503
H            7.52695954895917       -0.94934105858741        6.78589717179598
H            8.54021980669878       -1.63597120797423        4.65737377231023
H           11.53786482446520       -5.16210898283467       -1.82279705510517
H           10.63430629425114       -5.65852385905480       -4.05108046455804
H            5.90053414109172       -2.96849125183691       -7.97846597442967
H            5.82691686426670       -4.28279966833686      -10.06027956319104
H            7.30595423546835       -6.21917224079990      -10.37805720820436
H            8.89825738332399       -6.88638031138223       -8.61693171808976
H            9.75813763620682       -6.10586980259412       -5.97489077825650
H            7.87692505253908       -2.44575676621683       -3.64219620853712
H            8.78010687374052       -1.95997964241880       -1.41059253826762
H            6.63328338339005       -0.30391148937180        3.22027942446397
H            4.20034693664836       -0.07815290420321        3.14731162279180
