79
 energy: -16.412452281903 gnorm: 0.000318532720 xtb: 6.5.0 (97a52f5)
C            1.33467846792406       -0.49487320748405        0.62178989097803
C            2.00988703002006       -0.93447663326274       -0.66165958251581
N            2.62984837441403        0.18763227203460       -1.39951738569885
C            1.76052769896558        1.31915889122688       -1.78784460443285
C            0.52323378179950        0.89019080872430       -2.55106374183601
C            4.02463234918208        0.21938567069577       -1.64878845760033
C            4.73452189207026        1.42541782336580       -1.62222004381338
C            6.08443954982597        1.45386271486599       -1.86298124448015
C            6.78447650655481        0.28377846442383       -2.14890911395769
C            8.22955268110479        0.31659120335908       -2.41059360473320
N            8.81142932962742       -0.82479297903657       -2.73572152928449
C           10.10854854711780       -0.73784355093504       -2.97021018254793
O           10.80650871951665       -1.89890810065648       -3.32854772472221
C           10.10075269060422       -3.00119958154613       -3.82165677289812
C           10.68755227899993       -4.26653825296567       -3.72151307521143
C           10.05421308422771       -5.37948961794325       -4.21052725195455
C            8.80742582054234       -5.28054961036465       -4.83160785495172
C            8.13132307549791       -6.44831397086506       -5.35664133454556
N            6.98442900957829       -6.39622593708137       -5.97241247306490
C            6.55963039473653       -7.65024448833319       -6.37645476280322
C            5.36821644405015       -7.92551951743446       -7.06386868952277
C            5.06679429206672       -9.22002944525661       -7.40483676185660
C            5.92959473725851      -10.26407821183601       -7.07571225745408
C            7.10208656599740      -10.01543400971963       -6.40319674280653
C            7.41739099614087       -8.71032936155604       -6.05375359794822
S            8.80031950499122       -8.08128933789791       -5.21528963128504
C            8.22370505116617       -4.01791404766060       -4.94101317324876
C            8.85497713896357       -2.90596155734531       -4.44766328992247
N           10.81986019818632        0.37327884566525       -2.87520748816907
C           10.14024043579955        1.45359485881666       -2.52696826696658
O           10.87537813384070        2.64259593496285       -2.41320500637835
C           10.38476847248096        3.69152246904414       -1.63016489725165
C           10.93559578823240        4.96425154943189       -1.81038339838421
C           10.52214370501604        6.02769061101463       -1.05052167539757
C            9.54050953165064        5.87010831772765       -0.06993748219902
C            9.10355278666275        6.98266270484994        0.74715851726978
N            8.18996708246636        6.87815770528678        1.67002501048064
C            7.95930225270683        8.08626521445601        2.30514790382615
C            7.03537318628633        8.30058833685737        3.33865686963070
C            6.90761630735190        9.55341156594798        3.88356401233981
C            7.68428802484098       10.61486370217672        3.42209412068755
C            8.59433867886189       10.42600566125828        2.40964823202871
C            8.73161937893272        9.16360220829361        1.85070728373900
S            9.77350693954986        8.61252760006148        0.57700766990184
C            8.98834359457438        4.60178929286883        0.11175558025771
C            9.40051721841754        3.53987733719186       -0.65013425544517
N            8.83953022155472        1.48381824708633       -2.29840240513072
C            6.08223728679918       -0.91902603333060       -2.18054217610073
C            4.73370668328233       -0.95358236162209       -1.93282323350346
H            0.93164064536311       -1.34031202484880        1.18299330389029
H            0.50904054754788        0.18953011080038        0.42515052089950
H            2.03897463193783        0.02878335121016        1.26967480589002
H            1.30837167414202       -1.44247209589672       -1.33046797841606
H            2.78923773484847       -1.66766128741425       -0.43381071145611
H            2.35199694421452        2.00225314466276       -2.40542830801013
H            1.49917801460345        1.87852168242156       -0.88422250437129
H            0.79478769573511        0.31265607143250       -3.43573851524857
H           -0.07007503693272        1.74510496548379       -2.88161740052230
H           -0.12593456130930        0.26085644032751       -1.94179058652535
H            4.21661230618734        2.33460190806454       -1.37341739482559
H            6.62495204196363        2.38342480861630       -1.83117707736721
H           11.65014583719710       -4.34598271388766       -3.24829301942135
H           10.51562828142777       -6.34733090589808       -4.12356991140472
H            4.70814109842908       -7.11455754418777       -7.31474311715112
H            4.15245643286381       -9.43336055889930       -7.93351577929371
H            5.67469004041673      -11.27401790869525       -7.35167740950803
H            7.77694188634892      -10.81237660844766       -6.14354101583682
H            7.26517611332299       -3.93252957216276       -5.42210726202140
H            8.39796320517241       -1.93820559522425       -4.54098338998682
H           11.69683735282775        5.08857230893135       -2.55998312258702
H           10.95537514402963        7.00090625253725       -1.19978078776394
H            6.43961903147185        7.47663184551134        3.68860805132186
H            6.19881153480822        9.71977491038941        4.67787563292945
H            7.56937571814035       11.59125798813963        3.86313825999082
H            9.19990101100195       11.23703808162909        2.04428367567091
H            8.23050898043366        4.47165376744091        0.86430321137842
H            8.96976492233314        2.56847382324499       -0.49745905936743
H            6.61879783840195       -1.82304756309211       -2.40893582409685
H            4.20293101260832       -1.88684727974665       -1.99542720787619
