47
 energy: -9.966141839918 gnorm: 0.000914603655 xtb: 6.5.0 (97a52f5)
C            0.98032087440240        0.08758978777129        0.38471522065318
C            0.29531161023205        1.11111839488397       -0.14732904576736
C           -1.14389678118608        1.16012897377635       -0.14602533286911
N           -1.92392107299242        0.29553326117318        0.53593384470146
C           -3.17877483294786        0.70949489717734        0.37676572850898
C           -4.33757415157192        0.04039827246415        0.96109887715180
C           -5.63462095792674        0.49953933613720        0.73768714104384
C           -6.71522672548611       -0.14641880287979        1.29693067496744
C           -6.52240008631872       -1.26124842164426        2.08968335895289
C           -5.24364877224830       -1.72951659714357        2.32051613305613
C           -4.16155767792627       -1.08580806064187        1.76222677801179
N           -3.23676139252515        1.84675149740974       -0.40861955252809
C           -1.95565426215096        2.14447931953459       -0.77261775263282
C           -1.58068644169858        3.23327951925929       -1.64073928951978
C           -0.47044493901395        3.25895022569218       -2.40067132539910
C           -0.06220202331117        4.35105777163354       -3.26671843868761
C            1.06822882840124        4.20139131631505       -4.07380936749034
C            1.49157582175699        5.22106558081167       -4.89699361516043
C            0.79799221953249        6.41406497293312       -4.93397896867317
C           -0.32161770412195        6.58347826059938       -4.14392827431397
C           -0.74918032139669        5.56637715003339       -3.31881134304671
C            2.42780348315646       -0.03020952737880        0.43301889122202
C            3.00733681030467       -1.16962786946182        0.99555977336787
C            4.37609788169928       -1.31435991384843        1.05007237908619
C            5.19854959195118       -0.32660266990390        0.54599073712226
C            4.64619848364077        0.80809015195265       -0.01405906608292
C            3.27776467161354        0.95714678517072       -0.07143096123203
H            0.41252946543284       -0.72124365046181        0.80804536332453
H            0.82644520207478        1.94936180236484       -0.55347706078593
H           -5.78839430093755        1.36739867127705        0.12185636001593
H           -7.71319471822070        0.21934656827044        1.11783856615722
H           -7.36909723205070       -1.76523250445728        2.52650582695969
H           -5.09254228516144       -2.60057364289818        2.93703431836263
H           -3.16296468785728       -1.44721389356854        1.93541035646159
H           -4.07093418018238        2.35354541152164       -0.70199008565839
H           -2.27551515484618        4.05001775679057       -1.70517157493922
H            0.15762707076741        2.38713858518110       -2.41014180949572
H            1.61154984075837        3.27229832175262       -4.04621993765821
H            2.36663773334764        5.08809050497056       -5.51214859146010
H            1.13128139101995        7.21212722538477       -5.57713058925638
H           -0.86181570485898        7.51580631515736       -4.17140764576900
H           -1.61774810913731        5.71578575308851       -2.70283702095471
H            2.36848529107355       -1.94283679378337        1.38722022567797
H            4.80660244863841       -2.20144016727384        1.48567061901588
H            6.26948105209343       -0.44124765065377        0.58817293878446
H            5.28794463035506        1.57879468450322       -0.40914224182414
H            2.86242011382241        1.84557309102229       -0.51242522139692
