98
 energy: -19.905371090054 gnorm: 0.000582925218 xtb: 6.5.0 (97a52f5)
C            0.82924019963752       -2.00560296313629        0.68776924129279
C            2.22943931896155       -1.54548777545776        0.32100406752357
N            2.89256411794253       -2.34049199031357       -0.73718258973518
C            2.09973071876436       -2.65176218706951       -1.94657572271652
C            2.34955137003738       -1.65676731429468       -3.06085583342577
C            4.30526587636472       -2.41459631457594       -0.79309106402188
C            4.94240660897696       -3.35729350588050       -1.61029141520041
C            6.30848498500388       -3.38455532288070       -1.73198562818820
C            7.10836522127533       -2.45902164873508       -1.05585933102372
C            8.58031417860117       -2.42602748649017       -1.23492518349548
N            9.31353150801919       -2.40589491959791       -0.13056413744870
C           10.62110207840852       -2.45705573124009       -0.38271302748464
C           11.16815550151835       -2.52969013382252       -1.67971876791394
N           10.44458880915588       -2.51081316111197       -2.79928364388400
C            9.14297534633543       -2.42774352122687       -2.56301983580523
C            8.26039591484110       -2.31993308836864       -3.74968332732759
C            8.51645590891091       -3.09801188769099       -4.87797018791033
C            7.69771505690840       -3.02557167101282       -5.98332766738167
C            6.60631108519126       -2.18758062382063       -5.98353305266188
B            5.71582284945424       -2.17071687108551       -7.33304745468910
F            6.64006303183970       -2.04510449678555       -8.40750156994160
C            4.92536857800415       -3.58250494830737       -7.57435416961916
C            4.51922734459786       -3.78332474959595       -8.89178097880741
C            4.67256092820863       -2.74171564700245       -9.94581999126822
C            3.95156626620564       -4.99733079179074       -9.25166946407668
C            3.76110658260105       -6.01101846972649       -8.33106571677179
C            3.13111516188243       -7.30114475185153       -8.73040199202723
C            4.12546354640623       -5.77463757936635       -7.01824914474281
C            4.69526246104870       -4.57349686860939       -6.61942333996727
C            5.01876655591594       -4.41324476864884       -5.17298499096169
C            4.72393832767341       -0.86922801656012       -7.28981678690683
C            3.35788577692080       -0.90007278025968       -7.01282779352444
C            2.60810762005381       -2.15921637410673       -6.74819965413613
C            2.64514101591334        0.29085538460760       -6.98639872276177
C            3.25287382547242        1.51110498708366       -7.21501764477430
C            2.46303474289841        2.77492272015305       -7.20776251000819
C            4.60800378510739        1.52128802017831       -7.48619373296710
C            5.35567755030733        0.35225628353663       -7.51270766115136
C            6.81332149211540        0.46332523811727       -7.80066479470623
C            6.35820203760655       -1.38082721047526       -4.89425428019785
C            7.18143057944069       -1.43421433281546       -3.79296517621963
C           12.59921413995395       -2.59643088673801       -1.53580800532079
C           13.63324423199636       -2.68113596014892       -2.47322070339108
C           14.92914004070980       -2.73027381422128       -2.02078680497612
C           15.21636794318139       -2.69706581932552       -0.64954887028040
C           14.21257786084646       -2.61369359358105        0.28389507803232
C           12.88800661986765       -2.56202552721456       -0.16007883320805
N           11.67787562938368       -2.47362701109904        0.53598997278253
C           11.53009030052097       -2.41550089678003        1.98333270966260
C            6.48173171376110       -1.54586547266469       -0.20600645646434
C            5.11524796370856       -1.52110041708663       -0.07883163038631
H            0.45903896167090       -1.50600749405898        1.58695754875043
H            0.80827371697618       -3.08050125892790        0.87786715502824
H            0.10910631510199       -1.79732556483714       -0.10554758825700
H            2.86476737074470       -1.59533290949157        1.21199796322739
H            2.22688114769995       -0.49586379713717        0.00777241098766
H            1.03797920718585       -2.68010009085608       -1.68791510676187
H            2.33457385196316       -3.67123237067387       -2.26854479076147
H            2.12105869682249       -0.64001976803661       -2.73551920977954
H            1.74082909865947       -1.86609687604421       -3.94334633845061
H            3.39676173898953       -1.66485920592772       -3.36950546383102
H            4.34912867022582       -4.07672131276951       -2.14546191798858
H            6.78180659044167       -4.11141086509594       -2.37013712738831
H            9.36026060904361       -3.76627567376324       -4.86873150704115
H            7.89340619577520       -3.62824137668022       -6.85391056485051
H            4.55413980710813       -1.73990709105103       -9.53371682599395
H            3.92709328455135       -2.86075078118601      -10.73426718864478
H            5.66089217962401       -2.79939096552000      -10.40434769613608
H            3.65042296078158       -5.15497321660443      -10.27290146893302
H            3.34390999962653       -7.53778294955328       -9.77471411931949
H            2.04708101904581       -7.25739686873365       -8.60949906565583
H            3.50455111876193       -8.12702865454528       -8.12193514252460
H            3.95745453572795       -6.54451513007816       -6.28498508433037
H            4.37409433559532       -5.04147599178443       -4.55566563472791
H            4.87531226869306       -3.38641026666057       -4.83840861190813
H            6.05043317687707       -4.70170100942174       -4.96775269752389
H            2.55979477109815       -2.78403490968639       -7.64040580695347
H            1.57975389117715       -1.95441611423834       -6.44535759618185
H            3.07156775025290       -2.73169459951895       -5.94613829175532
H            1.58851967536483        0.26723391665885       -6.78280264674691
H            1.59950791825598        2.69705039902597       -6.54436312951609
H            2.09756003092889        3.00995146253794       -8.20917521516084
H            3.06834977339633        3.61604232562301       -6.86440526674009
H            5.09457994648390        2.46197219891138       -7.67796985942706
H            7.01822349225131        0.23140034747969       -8.84676196229130
H            7.39329971561400       -0.22530462170676       -7.18697371948640
H            7.18496307083927        1.46991356088264       -7.60090706587449
H            5.51488110390485       -0.71240877627438       -4.91183498039415
H            6.98878609314797       -0.79933747252372       -2.94542143253129
H           13.40235956521391       -2.70618803576548       -3.52389987410469
H           15.73833239361876       -2.79583431493105       -2.73038945426002
H           16.24336065011762       -2.73771500323631       -0.32339785496837
H           14.42566929871209       -2.58796015814210        1.33824259517925
H           12.11289004841041       -1.58952715082403        2.38864897801309
H           11.87643966993124       -3.34433906104862        2.43432748179357
H           10.48449877283708       -2.26736825153959        2.24814963215954
H            7.08999145113388       -0.83739174689587        0.32983206963367
H            4.65806375115035       -0.77262583666637        0.54382969288311
