72
 energy: -14.865621429886 gnorm: 0.000588970824 xtb: 6.5.0 (97a52f5)
C            1.56049360383504        0.12651616085566       -0.82307949666901
C            2.30452736660115       -0.05202318338179        0.48432801958979
N            2.90587931573413       -1.39603973277797        0.62197149239024
C            1.99470344504672       -2.55913641748239        0.58419606549625
C            0.83410962783856       -2.44797608186445        1.55235486637902
C            4.31282250647386       -1.57233115701592        0.63644032825167
C            5.15105023547410       -0.64405720883589        1.26920046698044
C            6.51159039766380       -0.82168814724984        1.29358130533065
C            7.11046801180008       -1.91628709521011        0.67581857625266
C            8.56390887581172       -2.10756367784720        0.77257045526197
N            9.25255899286188       -1.87746272074344        1.89106624489159
C           10.53796715725302       -2.17566100692123        1.60450875001111
C           11.70235883802201       -2.10238677031105        2.45015475729343
C           11.59852302653650       -1.71217040991372        3.78726852677949
C           12.70575901129327       -1.65988709022364        4.58801467785214
C           13.96909971575373       -1.99832206327084        4.08480149099853
C           15.16681897164124       -1.96057666337333        4.95381137159802
C           15.10458813634222       -2.39356794867497        6.27815604333522
C           16.22267876189378       -2.36804808727229        7.08309912943513
C           17.42534311573574       -1.90967795155358        6.58379685983167
C           17.50676699006297       -1.47594415142500        5.27565978375726
C           16.39066714628035       -1.50069585685942        4.46787549598777
C           14.07360343005458       -2.37912568401158        2.75526515874505
C           12.96447881170917       -2.44008469063291        1.90720373694360
C           13.07901287157803       -2.84364562339337        0.50004436733952
C           14.30847907209235       -3.15529130976273       -0.08592704629755
C           14.41982989070764       -3.54054195536823       -1.41374459340671
C           15.74214361318442       -3.85787141963077       -1.99753386563916
C           16.71234665134881       -4.52800198572921       -1.25205437821583
C           17.94514695754890       -4.81793061474651       -1.79495985146581
C           18.23624338725627       -4.44546702351527       -3.09196047063183
C           17.28939162070320       -3.78152611622433       -3.84582021239918
C           16.05560359748342       -3.48994862817763       -3.30600197046004
C           13.25405385272874       -3.61946436150033       -2.18851636896368
C           12.03450925527763       -3.31707797356018       -1.64976556094755
C           11.92236596130446       -2.92320604117451       -0.31246609137086
C           10.65295582861647       -2.58966061878595        0.26755728406321
N            9.38842354619102       -2.56390939985178       -0.25729628361670
C            6.27776077368824       -2.87373824416486        0.03758000542153
O            6.83238477501182       -3.98992155287114       -0.55503606448573
C            4.90232788126654       -2.68111774267854        0.03374355496712
H            1.16366007774057        1.13784075577134       -0.93465441950604
H            0.72033051468645       -0.56444862120447       -0.90216076865235
H            2.21731407237901       -0.06778566864756       -1.67244360317720
H            1.65048277840176        0.12513572033229        1.34397304240850
H            3.10052292233814        0.69465206931528        0.56025691233819
H            2.58026416154263       -3.45401446329176        0.81818607515127
H            1.64430182964346       -2.68865960245360       -0.44479879500827
H            1.19225699057786       -2.28265931665298        2.56974571146252
H            0.21984842445437       -3.35110061538433        1.55996936185394
H            0.17942769671352       -1.61275292481882        1.30058498450330
H            4.71434860753510        0.19508127049078        1.78071750066475
H            7.14040083208835       -0.11108092384562        1.80137913036526
H           10.62951440781235       -1.45475019257674        4.17727658887574
H           12.61650247641141       -1.34769344395799        5.61414016766511
H           14.17154444923275       -2.76560602258641        6.66466659189298
H           16.15872237792739       -2.70942873536207        8.10343234184777
H           18.29926979055160       -1.89092277835228        7.21433660795483
H           18.44501929359856       -1.11611500131030        4.88596353129526
H           16.45379570463191       -1.15016290548366        3.45218044459402
H           15.04283774774376       -2.65347792063113        2.38598781491443
H           15.20858304095774       -3.07908579322201        0.49282281621966
H           16.48359623365238       -4.83249314397808       -0.24542648336638
H           18.68322914257677       -5.33781049086958       -1.20625154082213
H           19.20107198066522       -4.67247190298973       -3.51531641954844
H           17.51640565693554       -3.48893580325786       -4.85802491382687
H           15.32514240745658       -2.95821386162575       -3.89071355028910
H           13.32718424255582       -3.93414164780672       -3.21514014855404
H           11.14533243846280       -3.38139324095340       -2.25156440814220
H            9.17482665172152       -2.58141070574515       -1.25596032592155
H            7.80148744648009       -3.83926965170417       -0.50837125432846
H            4.29193057481574       -3.39911619005412       -0.47918955349082
