65
 energy: -11.820062748521 gnorm: 0.000507403573 xtb: 6.5.0 (97a52f5)
C            1.48350675988655        0.90729630238405       -0.10323209037554
C            2.56304249624504        0.03630570911084        0.50845887821544
N            3.03007390844726       -1.04820963042310       -0.38038467680948
C            2.00186902274617       -1.88286561902817       -1.03795307105302
C            1.18451803900659       -2.68369488694772       -0.04581009741592
C            4.39803113996957       -1.42418503559083       -0.40107528333159
C            5.21362150661810       -1.24481222381335        0.72272876141469
C            6.53548169151289       -1.61107252369547        0.69841572140256
C            7.11609181920092       -2.16260516302010       -0.43836455824773
C            8.52862932182581       -2.53258273278815       -0.41502875308267
N            9.26281218198693       -2.45020857104659        0.68412094293308
C           10.49975510069588       -2.86590636043713        0.32850477674387
C           11.67193917356184       -2.98848357519224        1.08870780171156
C           12.82583497719906       -3.42111499463683        0.48420807846282
C           14.07903107737263       -3.60560798702413        1.29566095237801
N           14.17471921727825       -4.95351413287002        1.82589758731287
C           13.35817106088900       -5.38715712323932        2.85731837007481
O           12.69698269666739       -4.58808868527654        3.49904875840155
O           13.36290687582037       -6.74345457455278        3.06164592679388
C           12.46562925053734       -7.21170309825233        4.10555490791292
C           12.87434104332033       -6.61619819151300        5.45871922562089
C           11.01714707667254       -6.84174027990201        3.76013767402023
C           12.59727792822753       -8.74129751545641        4.16347994089164
C           15.32530941512023       -3.29183289867038        0.49229228031068
O           15.82906421117264       -2.19335768596348        0.57468085562873
O           15.76757413940967       -4.30989857600168       -0.29811162875751
C           16.92067243588778       -3.92098610328047       -0.98249280794393
C           12.81403681799823       -3.76535709435004       -0.88017135441473
C           11.68534111947932       -3.66583941877072       -1.64439591414368
C           10.50377989096364       -3.20931238375422       -1.04856874108248
O            9.23468248563898       -2.99480408016134       -1.50993907072687
C            6.31139035994010       -2.34706982139454       -1.59009027119845
O            6.82282941267606       -2.87754573942377       -2.75392233575882
C            4.97208798287073       -1.97795915487075       -1.54184704911627
H            1.23091461873934        1.75423312211060        0.53785357094070
H            0.56411349867740        0.34671521385863       -0.27418895288677
H            1.80663589789500        1.30656689186594       -1.06549035708650
H            2.22604947619404       -0.41183770677908        1.44841518105785
H            3.43145051856793        0.65423883124374        0.75913070950554
H            2.49672761609937       -2.55742877323432       -1.74194209120899
H            1.36679649323695       -1.23544527033457       -1.64997164893947
H            1.82894564090787       -3.32065844861452        0.56145775288349
H            0.45303761857401       -3.32551025344721       -0.54073188574387
H            0.64004212199126       -2.03220730879223        0.63818503495449
H            4.78651233550185       -0.84342892733293        1.62424205621980
H            7.14973042149728       -1.47545772724197        1.57124906024733
H           11.64991189748135       -2.77879179103339        2.14185863130085
H           14.05212809780152       -2.92437574798812        2.15644480021398
H           14.61644740534276       -5.61829290143994        1.19549361475490
H           12.79251659077293       -5.53135265531303        5.43694833342725
H           13.90796504880475       -6.86880630269204        5.68735189163089
H           12.24146616407452       -6.99150465967069        6.26134172056210
H           10.89936021360528       -5.76076146965578        3.72048586822202
H           10.32296614152829       -7.23443049626238        4.50134797610135
H           10.74541317352214       -7.24323460580877        2.78573112964643
H           13.62547997224073       -9.02369972642471        4.38146697589024
H           12.32866895914266       -9.17994384739727        3.20431640006899
H           11.95178772566816       -9.16586292325451        4.93078069125727
H           17.23878331776673       -4.73417729327748       -1.63861690103289
H           17.70946787669883       -3.69958884776173       -0.25998582011871
H           16.70655581638256       -3.02888722533335       -1.57554135928937
H           13.72821119713571       -4.12404619170088       -1.31929501821507
H           11.68431966264146       -3.93143979373772       -2.68623088401901
H            7.77152096312425       -3.04908567469651       -2.59443076644681
H            4.38934188154791       -2.09094363998995       -2.43533945068588
