40
 energy: -7.234619313924 gnorm: 0.000920774436 xtb: 6.5.0 (97a52f5)
C            2.48811721057621       -0.89657914440722       -0.12251105925188
C            2.32449186392790        0.53411014241156       -0.59367712192914
N            2.85284149816090        1.51543805789289        0.37367311098440
C            1.84790296352618        2.33323983164353        1.07843263055846
C            1.27797740667649        1.63611964205723        2.29482408540689
C            4.23198951421687        1.58568473406163        0.69054242529533
C            4.67990619615672        2.24393708026824        1.83970064225179
C            6.01945394012451        2.30704380853386        2.14503946484855
C            6.96116836253359        1.71908181577605        1.31346337036578
N            8.37348066687985        1.79598511187329        1.63070185881099
C            9.22546608644207        2.83812602043435        1.29088907405391
C            8.84461068809899        4.04848573893143        0.53126411851903
C           10.47711920085056        2.53052790262310        1.76313133610176
C           10.40295348256774        1.28988440146819        2.40992056535232
C            9.10816846622740        0.84243473243614        2.32257983131072
C            8.57211117252358       -0.41385348530977        2.88966234199329
C            6.53142099014272        1.06461357974406        0.16854006636811
C            5.19251085117497        0.99893375221069       -0.13857200303685
H            2.09948412285519       -1.61580285349292       -0.84731774360739
H            1.96470172481476       -1.06123412341404        0.82023366851229
H            3.53726234765637       -1.13905777772091        0.05246582424726
H            1.26713039132761        0.75563281871238       -0.77409746892819
H            2.82023905501778        0.69708534645112       -1.55624495588953
H            1.05349247606509        2.59033209009850        0.37004735164868
H            2.30522344248958        3.29092980680190        1.34671092360008
H            0.75461799575198        0.72135586960437        2.01317731927964
H            0.56955849289495        2.26680630108736        2.83626047183631
H            2.06715333833321        1.34988322803222        2.99077189067028
H            3.96610782927297        2.69569357236551        2.50449274091872
H            6.35650902658035        2.81361202062105        3.03282867931447
H            7.76056590391228        4.12715495279131        0.44346417588003
H            9.26268424984004        4.02172971123203       -0.47576801092143
H            9.20798960364173        4.94993205937950        1.02638582284543
H           11.35755919912425        3.14258021676032        1.65227618576232
H           11.21385210249755        0.77303796662507        2.89715580522235
H            9.18338024818407       -1.26732942201864        2.59355398519995
H            7.55381538244380       -0.59335222279044        2.54348275198528
H            8.55432009451991       -0.37067945548157        3.97943785098136
H            7.26511909786291        0.61314128606006       -0.47640440573768
H            4.88112331409869        0.49952488565467       -1.03825760082514
