52
 energy: -11.492750111799 gnorm: 0.000852722970 xtb: 6.5.0 (97a52f5)
C            1.13576853815793       -0.21226943481957       -0.25502937218297
C            0.32965622621342       -1.22857036582822        0.11841382302392
C           -1.10000098648195       -1.20287527647686        0.04418531663409
N           -1.87142147031229       -2.02983731740960        0.75188570515839
C           -3.14860699448101       -1.72688754082095        0.47142543239439
C           -4.29353560665769       -2.43095221437899        1.05727003644687
C           -4.17757436317471       -3.00404087294155        2.32317687782840
C           -5.23498575974426       -3.67594155060551        2.89440348700571
C           -6.42742101204033       -3.79936549236559        2.20872511596598
C           -6.55572098102474       -3.25488457170687        0.94601709249841
C           -5.50081597668785       -2.58075395768061        0.37277956645370
C           -3.18728199962856       -0.65148106004717       -0.45637086732365
C           -4.25172766501555        0.07245984360622       -1.02500993191735
C           -3.96517681621701        1.04513683235240       -1.93138150225940
C           -2.63100094975018        1.31111798921323       -2.29174297538010
C           -1.61151812622976        0.62988166799372       -1.71333570932218
N           -1.87356967811701       -0.33765651023901       -0.75323882270772
C            2.56560378006471       -0.22826358714867       -0.18181328625110
N            3.29481882225018        0.88860655142762       -0.18195927069556
C            4.58398806950361        0.52772793047405       -0.08514162629603
C            5.68922174313082        1.49081075077807       -0.07323331553434
C            5.47497671477992        2.77899463061896        0.41578646632816
C            6.48973691346555        3.70951803179716        0.42505735358846
C            7.73772773569899        3.37674159088653       -0.06361442060782
C            7.96495354082800        2.11153393784849       -0.56862060804934
C            6.95272539256255        1.17802136749059       -0.57724431651087
C            4.67498376307919       -0.88863494089116       -0.01282647768377
C            5.76432937634333       -1.76491048651372        0.14859799251902
C            5.52741194939560       -3.10427947153725        0.14318200195623
C            4.21963768355558       -3.59615876516673       -0.02627244446837
C            3.17294383474420       -2.74343323377096       -0.14962381998675
N            3.38275103195264       -1.37228170790388       -0.10692112113063
H            0.68984648985829        0.72072881992272       -0.54031684492584
H            0.76482864632134       -2.08688869010023        0.59250252056468
H           -3.24476618167626       -2.90815528712821        2.85106478296493
H           -5.13145494326150       -4.10743812784290        3.87648910906527
H           -7.25449911115003       -4.32632844998255        2.65567670764409
H           -7.48177572522549       -3.36335426031421        0.40548545607794
H           -5.59072673561617       -2.19865058055086       -0.62828441703382
H           -5.26483584139374       -0.12388951001292       -0.72505846477718
H           -4.76187172391124        1.61234237554012       -2.38412644236827
H           -2.42283180586649        2.06024440914045       -3.03778316905812
H           -0.59781298627961        0.79784118434325       -2.02412032519540
H            4.49876318220085        3.03434538367515        0.78972111855849
H            6.30886346851560        4.69905270561380        0.81177545293101
H            8.53147189928460        4.10574786488923       -0.05840544953876
H            8.93504504899961        1.85644142071491       -0.96283403582050
H            7.12245972588602        0.20990691634342       -1.01305684254248
H            6.75536185774930       -1.37841677384708        0.30133877532861
H            6.34462192866285       -3.79662888971086        0.26275434701323
H            4.05408742737100       -4.66034244323160       -0.06096340232664
H            2.18147864936401       -3.11581083368968       -0.32467525605332
