64
 energy: -11.595867862835 gnorm: 0.000436006020 xtb: 6.5.0 (97a52f5)
C            2.28716285110641        0.33508905330162       -0.10947773311566
C            2.71038908577440       -0.71653376932071        0.89446261192447
N            3.54801936270931       -1.77022783425679        0.28097039367396
C            2.88656567580417       -2.69582463129357       -0.66360390537567
C            1.59373229284856       -3.29135829378502       -0.14121911816555
C            4.96304043986397       -1.68628058426348        0.32684312280272
C            5.74446622583087       -2.01426409107679       -0.78954739298799
C            7.11021832727878       -1.92729777991148       -0.74863017692705
C            7.77761147040655       -1.51301351252714        0.41788878144016
C            9.19927315562113       -1.43333032765703        0.42865383053367
C            9.97051190811588       -1.08018430685097        1.50068371741640
C           11.36997653257885       -1.01664981190161        1.42668992286096
O           11.95068295187860       -1.30035986740666        0.22199790379948
B           13.36199921965237       -1.69000821385054        0.23435724963260
F           13.45838550249090       -2.94927952130782        0.77763075744370
F           13.86751251127518       -1.67643234869599       -1.03952176399242
O           14.11138929587548       -0.76386467269435        1.08715539188862
C           13.55890787526705       -0.49747192799951        2.30050884119963
C           12.18660858108926       -0.64763742821707        2.53530289288665
C           11.64674350452887       -0.36481279393608        3.86230048746949
O           10.44700310866145       -0.49609867770504        4.07278944153786
O           12.49101874874119        0.05138391453498        4.87712829798007
C           13.84481773734253        0.21573587080546        4.62270900665808
C           14.68042382810530        0.64204396885549        5.64661632054934
C           16.04954019632904        0.82339353841567        5.46069661112239
N           16.87631121040910        1.23911917942843        6.52019824685524
C           16.34967877148662        1.53538392956256        7.86581587194472
C           16.16689734294313        0.28179447677611        8.69592728715954
C           18.33761892143349        1.37974458992328        6.37605921810217
C           18.72702245804136        2.71968777585163        5.78747634213487
C           16.57695816161077        0.56725544952928        4.18263121877717
C           15.77407782116489        0.14461694624679        3.16043822948368
C           14.40134833451929       -0.04171796186042        3.35430353392066
C            6.99140274126154       -1.18954840805587        1.53862854265904
C            5.62533224651068       -1.27179674951861        1.49050980627153
H            1.70462224379702        1.13395553051567        0.35348401347468
H            1.67819199852397       -0.09840324164680       -0.90333381079378
H            3.15828259499024        0.78911098915355       -0.58368502598670
H            1.84480223111852       -1.18711587066794        1.36937702363804
H            3.27138096436141       -0.25309175140489        1.71026286563476
H            3.59554242176412       -3.50087998399670       -0.88288552258350
H            2.72449789668830       -2.16505196687397       -1.60685814465327
H            1.74818146479093       -3.75971517375499        0.83170697293637
H            1.19473231671233       -4.05224357390684       -0.81493263247158
H            0.82113578075463       -2.53155167706171       -0.02026140038767
H            5.25724413705874       -2.30653800905108       -1.70270020261133
H            7.69050167740729       -2.17653803526455       -1.62032166286714
H            9.71606893696978       -1.67418888694475       -0.48352503657446
H            9.50065613565346       -0.85131881040680        2.43601378588498
H           14.23389414189405        0.82251060615600        6.60465280692930
H           15.41261701967091        2.09012729464413        7.75983623183438
H           17.03750603068840        2.22965152687299        8.35975017670312
H           15.48347574386616       -0.41587333090292        8.21096584385633
H           15.77064261601508        0.50115857256588        9.68922118085712
H           17.11523791733498       -0.24153831410692        8.82401928408661
H           18.71158242154457        0.54838879873268        5.77099780531100
H           18.79551807055474        1.24275926187976        7.36126128737536
H           18.27476625686541        2.86553301361168        4.80606550493600
H           19.80822225703216        2.82012678770895        5.67457344711294
H           18.38162843886836        3.53734329910361        6.42139383865757
H           17.62664261697539        0.70849832461198        4.00187976685621
H           16.18507238113332       -0.05427371738080        2.18555539220938
H            7.46980105098526       -0.87608477023707        2.44881144946256
H            5.04955383741739       -1.05385207108435        2.37213097160532
