68
 energy: -12.640573043730 gnorm: 0.000846207334 xtb: 6.5.0 (97a52f5)
C            2.26941296488826       -0.68641538184789        1.08681204894069
C            2.24935116361682       -1.70477286163834       -0.03416166737586
N            2.89593154934487       -1.19817133306927       -1.26139258698437
C            2.06209399066647       -0.49469457042942       -2.26738160452263
C            0.55897613568262       -0.57701012299329       -2.07766817577296
C            4.29977557416121       -1.19657805873341       -1.38800994516429
C            4.92490026862311       -0.62880349217063       -2.50598578796616
C            6.29079272993378       -0.62421413569239       -2.63417231727323
C            7.11325026804896       -1.18945892287675       -1.65426153544320
C            8.55188221251730       -1.17114542782368       -1.82735453116502
C            9.43642119220762       -1.80272435028854       -1.03324823363843
C           10.87745526492511       -1.79446717650853       -1.19300979934445
C           11.49727779595603       -0.99262473300217       -2.13225063764652
C           12.87342032433680       -1.03325264622374       -2.24254124690980
C           13.53258534170056       -0.19380630603665       -3.21807078385058
C           14.86408727656406       -0.20540118103312       -3.39704249739871
C           15.60753744887314        0.60799996218630       -4.33649905425733
C           16.99238950184064        0.44568549017144       -4.44594851974755
C           17.72986319025892        1.20179969204194       -5.32153525488594
C           17.12479046951027        2.16534461044566       -6.13774450206569
N           17.88103092447822        2.94404348747056       -7.03281551217462
C           19.34896145856774        2.83596404148222       -7.13280743489283
C           19.78021901164621        1.69226132905508       -8.02695523616478
C           17.26412961800150        3.93005703246248       -7.94004825504471
C           17.01064664012059        5.25743742816624       -7.25667028825199
C           15.73814997669963        2.32625370142749       -6.02514703958805
C           14.99938063194615        1.56988055823774       -5.15019037903843
N           13.60120648064221       -1.83128844476480       -1.46092247291666
C           12.92561145882300       -2.56607430510114       -0.57031617074771
N           13.67571036712339       -3.40317324227996        0.24753802401815
N           11.59908078071959       -2.58777417599662       -0.39739185822676
C            6.49406639392764       -1.75093113112086       -0.53252996084024
C            5.12766971390401       -1.75305513604830       -0.40399903479527
H            1.80466741809338       -1.06774371835649        1.99840909946864
H            1.74047599848486        0.22296252291168        0.79890960066345
H            3.29032444196240       -0.39230730182192        1.33394247937705
H            1.22531379451131       -2.00996580273091       -0.26529791069784
H            2.74554169990057       -2.63393139211426        0.26301809329125
H            2.32676893310083       -0.90028168481800       -3.24961379770163
H            2.38045774155480        0.55346325513639       -2.27305792436263
H            0.20715256646389       -1.60874615179184       -2.12409853660716
H            0.02330127144052       -0.02047476346997       -2.84982426511904
H            0.25356240329500       -0.16495734431673       -1.11510154092171
H            4.32603586565648       -0.18535831016459       -3.28085501306635
H            6.74666051127878       -0.18419937866580       -3.50480552882607
H            8.91997540607435       -0.62127970976772       -2.67382681503458
H            9.06833196577573       -2.39170951827090       -0.21463971900289
H           10.93073439007303       -0.33692737953179       -2.76602830858659
H           12.91826190048092        0.45712039019008       -3.81176263247764
H           15.43531676219005       -0.88016199634594       -2.78547021370221
H           17.48057116451461       -0.28877950417346       -3.82824257648697
H           18.79160337152141        1.04644689193246       -5.38447354213717
H           19.76318395295802        2.73688324719224       -6.12449957590687
H           19.74056068201918        3.78807597477793       -7.50726824473725
H           19.39814274652376        0.73869114034926       -7.66020723002569
H           20.86715999858028        1.61084213805897       -8.09637678868588
H           19.39178769071081        1.82063889342425       -9.03846016738626
H           16.34158557943995        3.50376657063634       -8.34639324110672
H           17.92160031418765        4.06077784458802       -8.80646141851166
H           16.35373824510331        5.13822568887382       -6.39412656673888
H           16.54990856967063        5.98505415969096       -7.92821045567630
H           17.94195697280319        5.68938330427328       -6.88734892253194
H           15.24071852198013        3.06253981869108       -6.63018651575846
H           13.93680974413369        1.72223460427458       -5.08707996220668
H           14.63171653163719       -3.60265992785464        0.02895070780026
H           13.22950844946856       -4.12444822561815        0.77868718920175
H            7.09689181674951       -2.17603912781505        0.24989477443862
H            4.68991445740939       -2.18355540485248        0.47806772089368
