118
 energy: -23.948572738132 gnorm: 0.000817631498 xtb: 6.5.0 (97a52f5)
C            0.08249808454405       -0.99189150372248       -1.54116532013043
C            1.55482236995116       -0.92315481974176       -1.18032354470214
N            2.50433393265447       -1.53086090999622       -2.14542359109263
C            1.96733750546618       -2.29043474893716       -3.29266048203526
C            1.83633886002637       -3.76963877226141       -2.99297185988648
C            3.88427528432522       -1.50934301769632       -1.88009790799760
C            4.80110439793716       -2.18442343120537       -2.69570070339631
C            6.14411028997624       -2.16321374145660       -2.42428900190192
C            6.66369508011225       -1.46755108745694       -1.32478297897276
C            8.09785230883643       -1.49512490876062       -1.12153489102025
C            8.85382677318323       -0.98520579361130       -0.11639405712715
C            8.33469003288586       -0.25210353674848        1.08685352478477
C            9.54034366275475       -0.00496703165177        2.00053996462738
C           10.75464960774200       -0.37869357576796        1.20255934726949
C           12.02903003243996       -0.03760008059736        1.51844609316172
C           12.49933279844677        0.71109051081152        2.67153605718378
C           13.68650019675158        1.44518124945191        2.55899262432113
C           14.17465499857652        2.17568315128761        3.61175392162518
C           13.50798108248875        2.20004927515607        4.83628801967632
N           14.00989130765543        2.97823741643487        5.92643637702037
C           14.69743922765477        4.21220212655880        5.65662092676417
C           15.84855047929996        4.55434036244984        6.36141891318374
C           16.51007874427262        5.73186056966892        6.09560261010247
C           16.03458549496648        6.58915054458135        5.12271064397762
C           14.89330674017995        6.26440350726053        4.41601317511564
C           14.22999406736220        5.08747307029187        4.67959382469129
C           13.83596099955116        2.54650157940103        7.27886718695552
C           13.66817025761392        3.47072797520682        8.30863384958764
C           13.49944278090092        3.05599935810445        9.60475211889356
C           13.48781056339465        1.69655110413925        9.94399466542059
C           13.29228426223446        1.34576681629141       11.33817252438342
C           13.02632507757236        0.14348967663180       11.90853732834861
C           12.87807682280795       -1.15857116719324       11.17601774408483
C           12.48106715566680       -2.20900879473668       12.22089079536724
C           12.31468275383931       -1.47607978128206       13.51951418584440
C           11.74034090165160       -1.99073843548308       14.63660436153246
C           11.20015272961337       -3.32266833748397       14.84276203621353
C           10.19572309434108       -3.50051759296608       15.80253526383270
C            9.64011086954500       -4.73099703069385       16.03783496779647
C           10.06311612068943       -5.86498907811821       15.33299401774514
N            9.48780525414984       -7.12369905689478       15.56348233900825
C            8.44418763177747       -7.34419701570670       16.58227660636176
C            7.06389638965039       -6.98173533749337       16.07556941645280
C            9.86743851002576       -8.32252074870283       14.79241352487008
C           11.10264402011486       -8.99570271438624       15.35277866425984
C           11.08617790639647       -5.69252722703441       14.39159437457729
C           11.64008552498332       -4.46039054488606       14.15608760326928
C           12.74360852258375       -0.08680601293399       13.33017227571306
C           12.83693915134614        0.86354233973971       14.33605577000209
C           12.54532265951570        0.60220966466759       15.66283177984889
N           12.28878107991722        0.38791360007178       16.78004566673567
C           13.24290068644430        2.16894292753126       14.12552016483421
N           13.58023728484229        3.27046337197842       13.94420795845062
C           13.67353040173537        0.77632790153870        8.90557858871504
C           13.84159303151608        1.19171253014932        7.60846097303632
C           12.33618908308678        1.45387785043972        4.96226548285213
C           11.84587083051421        0.72344034079346        3.90917055605120
C           10.31654571982583       -1.05309125562176       -0.02349520763044
C           11.16047765687310       -1.64585243301165       -0.95088531802040
C           12.53637335167264       -1.68633276734319       -0.81260750673981
N           13.69704342662134       -1.71727943771582       -0.70472624352669
C           10.72162727972609       -2.26911467992248       -2.10510633237647
N           10.35323424627295       -2.79566808114107       -3.07817474957969
C            5.74792000314770       -0.78486572406237       -0.51581348639374
C            4.40251376810930       -0.80965545232786       -0.78221159557367
H           -0.54495422425634       -0.55267612160355       -0.76258507240849
H           -0.24808486308248       -2.02242781346907       -1.67645878099064
H           -0.12738007481305       -0.44936299505535       -2.46428512566936
H            1.72406212489452       -1.41227843066134       -0.21473952026082
H            1.84924984814979        0.12371546220663       -1.05093372106795
H            2.61501954941872       -2.11412067432741       -4.15732878183475
H            1.00387924093089       -1.86623766727517       -3.58758667591954
H            2.79937610371683       -4.20447031374522       -2.72314704505356
H            1.44671769251657       -4.32889609014669       -3.84633836621001
H            1.16640783311500       -3.94059009196754       -2.14952258944358
H            4.45051676685211       -2.73703941314610       -3.54812830796003
H            6.82363709303968       -2.69466040588037       -3.06795743795640
H            8.62370722300761       -2.00831703248159       -1.90323410841973
H            7.56505955045540       -0.84328189493928        1.59705102258017
H            7.88461334093487        0.69754805895399        0.77443377782613
H            9.47827989944652       -0.63609455936132        2.89438198231958
H            9.59819335559652        1.03841630831773        2.33306898888207
H           12.79747654792375       -0.29011643388695        0.81294228495431
H           14.21369325991315        1.44016787241438        1.62048927382254
H           15.08822503102892        2.73429846472292        3.50779675288029
H           16.21923813395211        3.87737276731199        7.11106783464699
H           17.40148293106305        5.98424175294813        6.64614822960856
H           16.55381304817112        7.51028923906573        4.91485603118328
H           14.52135273972088        6.93342123740543        3.65736632884359
H           13.33633533048107        4.83180143481328        4.13769747918310
H           13.65866911761920        4.51926962921567        8.06784988753488
H           13.36300884193812        3.78689301733882       10.38304105530867
H           13.32875463015129        2.19257131023508       11.99614586082098
H           13.82483005218802       -1.43239939910125       10.69636257364059
H           12.11572257440953       -1.06506398945386       10.39341915603363
H           13.26748312923326       -2.96583053416515       12.31892159218636
H           11.55324077434959       -2.72703195576853       11.95005175477581
H           11.60005349115361       -1.32668011564798       15.46812727585306
H            9.84844377164666       -2.64308778551462       16.35313407836218
H            8.86028206678128       -4.82280911869738       16.77187739726150
H            8.70616620028928       -6.77610849608079       17.48038362424485
H            8.47967375150446       -8.39469451904992       16.89024630814682
H            7.01916895253342       -5.93723390034646       15.76553443015989
H            6.29363951332589       -7.13737291416609       16.83360869696602
H            6.79912768036569       -7.58224810111351       15.20428054284315
H           10.00420835343385       -8.03639588817855       13.74489196324105
H            9.01773527310550       -9.01376829907806       14.78924870741751
H           11.95345918574567       -8.31361360539766       15.36231963565411
H           11.38848835821232       -9.87685220900904       14.77495088789654
H           10.93912811891290       -9.31290646331816       16.38361505833154
H           11.45610177746187       -6.54485384672143       13.85122001129493
H           12.45483212329768       -4.37948385576916       13.46185361314873
H           13.70886557060397       -0.27451811288439        9.11456912634363
H           14.00032797542345        0.47073191607345        6.82571286342737
H           11.81168227923394        1.46841108607560        5.90143652004104
H           10.96760750608326        0.12266949199932        4.05304801786917
H            6.09145330894528       -0.21320167799889        0.32366789388072
H            3.73255696845759       -0.27449747706200       -0.13376702450094
