64
 energy: -12.197130397708 gnorm: 0.000720521446 xtb: 6.5.0 (97a52f5)
C            1.38127325015904        0.35568718176258       -0.56284601530475
C            2.57454929106981        0.28400079119717        0.36997524384746
N            3.00860484765303       -1.09247654567597        0.69180119035612
C            1.95497712772673       -2.05462290024894        1.08318469241998
C            1.34510555688977       -1.72185429038742        2.42860001612018
C            4.37616926274814       -1.38156473893728        0.90684012266220
C            5.27887037616023       -0.37732725568552        1.29262429369277
C            6.60241348473076       -0.65616382063220        1.50143740013467
C            7.11567704982322       -1.94816298649817        1.33271399081492
C            8.50637938429856       -2.18045392636286        1.56074464809815
N            9.12802428391343       -3.29967948395861        1.40237634349517
C           10.47080138059697       -3.43757115114507        1.64104144779736
C           11.19742467398412       -2.34986011967822        2.12710318118460
N           11.74622364207452       -1.40583978487041        2.52821022836996
C           11.10338553207821       -4.64096567568391        1.38654404154521
C           10.36434263736203       -5.71181148537444        0.88440248520294
N            9.78881083726828       -6.63202176122594        0.46620237748847
N           12.44880843388709       -4.78506052652320        1.60224389568612
C           13.07847517436096       -5.86671208302293        1.29113528229570
C           14.47260549807009       -6.10538874803975        1.45834434915796
C           15.02968533993412       -7.28951976544746        0.96133081361098
C           16.36718566900288       -7.55403376074745        1.07394516109322
C           17.23643994815653       -6.64461048912106        1.69593623292158
N           18.61380824943087       -6.90544487931808        1.79525262605341
C           19.21857222152650       -8.16447986017984        1.32275977390096
C           19.51095187139994       -8.13698024465375       -0.16292456260515
C           19.56711357943440       -5.92919650053567        2.35488985653038
C           19.65495179676906       -6.01427418534580        3.86427844593056
C           16.68725044229167       -5.47041557925258        2.20666268140441
C           15.33111957854677       -5.17546944609344        2.10910673079618
O           14.82929828578829       -4.00968582737245        2.63955137354718
C            6.21464477581096       -2.97951692911317        0.93524360087323
O            6.64169839214732       -4.27042308579857        0.73647184003282
C            4.87465277935214       -2.67141971744534        0.73883382789093
H            1.15809286852986        1.38231583281395       -0.86022163364778
H            0.48126574943577       -0.04691629888717       -0.09725242081008
H            1.56458370660137       -0.21907093168890       -1.47165747781478
H            2.37386869308968        0.80795822482081        1.30985915970464
H            3.42491177890131        0.79712775748532       -0.09090699584884
H            2.38319354599867       -3.05997609054123        1.10500374077308
H            1.19561862292019       -2.08259061846881        0.29621702663975
H            2.11201577371451       -1.69164157011758        3.20373558947662
H            0.59370554380952       -2.45380941188288        2.73134870550455
H            0.86446614076312       -0.74321196098476        2.41457775846904
H            4.91416266477245        0.62030967858548        1.45991687972754
H            7.27160087900510        0.13106407984886        1.80410091204701
H            9.09478283180226       -1.33888688029458        1.88296737418434
H           12.50195008472255       -6.65154843784166        0.83239458553210
H           14.38537909926451       -7.99950748133954        0.47143216293188
H           16.75814075831194       -8.46907894135555        0.66822008439996
H           18.55431352337224       -8.99261625936597        1.58831499277357
H           20.13611398111351       -8.34076747581868        1.89419720468755
H           18.60346517810320       -7.95785904712812       -0.74020958333546
H           19.94922928386424       -9.07371441767669       -0.51256725399769
H           20.20576499185465       -7.33278004856583       -0.40815424560829
H           19.27751404738720       -4.92739713371684        2.02294395793883
H           20.54752652760930       -6.10643103184546        1.89996756261335
H           18.68072714803931       -5.84959631942941        4.32552172227111
H           20.34752767988334       -5.27849687894330        4.27762498784486
H           19.99200723254069       -7.00259027514702        4.17941634603623
H           17.32272264061319       -4.76485182550144        2.70377263475374
H           15.54173187279952       -3.48067764320099        3.04965489813701
H            7.60372357234264       -4.26491050352274        0.91244791787005
H            4.22876892440903       -3.45874850887103        0.40243578972193
