64
 energy: -12.199350225947 gnorm: 0.000730685733 xtb: 6.5.0 (97a52f5)
C            1.60173594400469        0.16770446064730        0.98358262714477
C            2.64783953724866       -0.13426744185101       -0.07086325763364
N            3.16234952515790        1.07472534582604       -0.74908365845153
C            2.16812861350040        1.99585946678677       -1.34259719234913
C            1.27255953461536        1.32251242229698       -2.36263653123446
C            4.55064591558590        1.29809772324522       -0.89582938621151
C            5.45483722811962        0.22830243374832       -0.98556993390773
C            6.79615799282961        0.45072241504878       -1.13992935453621
C            7.32177795300157        1.74714350497735       -1.21282010814956
C            8.72407956920534        1.91909867244054       -1.38657046954892
N            9.32201859255706        3.05478665794482       -1.49595741020721
C           10.67080139891004        3.17531635464916       -1.68424743770763
C           11.47235956023214        2.03433864143639       -1.74814047565155
N           12.10500253171742        1.05970280644706       -1.80340630086175
C           11.21016919271684        4.44056855100069       -1.82331420553908
C           12.57549591506850        4.62699996042402       -2.04401682088980
N           13.70635895079342        4.82536818760233       -2.23100688922202
N           10.37388213025215        5.51896151508349       -1.74947930343854
C           10.77829170053734        6.73193087062178       -1.92583101928004
C            9.95360941109443        7.89043975592808       -1.85843968911035
C           10.48458999653969        9.14545933562252       -2.17693863377489
C            9.71397450846449       10.27569330572579       -2.13966316217719
C            8.35912620856606       10.22068549563084       -1.77553863075063
N            7.56567023314158       11.37979668183491       -1.74019784839223
C            8.10546402772162       12.71963850015535       -2.03665340726579
C            8.14669591696677       13.00175118543537       -3.52386030164911
C            6.12966922477536       11.34851459930197       -1.40525235625681
C            5.89187573448405       11.34597043518087        0.09027935460404
C            7.82634777541433        8.97550176095629       -1.44911179466275
C            8.58511099506023        7.81071425374261       -1.47878327802748
O            8.02723902196314        6.60113837617546       -1.13990484028432
C            6.42294847168498        2.84756967279790       -1.11634601017577
O            6.82544983089309        4.16201938698633       -1.16377347540489
C            5.06554086112880        2.59038302563126       -0.96109058188606
H            1.28752012902497       -0.73194623513755        1.51652064388105
H            0.70840125930235        0.61446427653461        0.54672276368857
H            1.98829361192822        0.87211533422110        1.72131285302365
H            2.26147460425788       -0.81801658487281       -0.83319318713041
H            3.49407072190231       -0.64824958330964        0.39500808379507
H            2.70314259160608        2.82271799363550       -1.81823313159519
H            1.58582835966389        2.44481510576418       -0.53204516471869
H            1.86601654276082        0.86054735004906       -3.15276927357885
H            0.58531424104777        2.02866056664857       -2.83293925174069
H            0.67064409745968        0.53471359561867       -1.90919721058981
H            5.08006249055822       -0.77955658784914       -0.97547202478587
H            7.46972287483666       -0.38568303338216       -1.21681460920979
H            9.33220386344938        1.03340237975183       -1.44662002982447
H           11.81722916810872        6.87547763279845       -2.16698364953436
H           11.51990094422417        9.21246964949904       -2.46457928683158
H           10.15475627551276       11.21961195416899       -2.40336173519602
H            9.09659391203817       12.80707739271135       -1.58098297555928
H            7.48803653103072       13.46162529538722       -1.51921126083046
H            8.75918624433409       12.26695148887077       -4.04727432277530
H            8.55210697805924       13.99138945746949       -3.74356358447555
H            7.14727370578240       12.94797697201627       -3.95765098802833
H            5.67632200461975       10.47715456371349       -1.88785880104208
H            5.64745383428639       12.21395933377294       -1.87215787901819
H            6.37047656389890       10.48840327116200        0.56413711131796
H            4.82905791511048       11.31408409661118        0.33757254822633
H            6.31375343454061       12.23930461695958        0.55269835551776
H            6.79884149919019        8.90082346380266       -1.15347656946853
H            7.07519320374360        6.70010133252181       -0.93740631632477
H            7.79519767251787        4.21488597347727       -1.29498901265342
H            4.41094072126912        3.43313060794098       -0.85074031162789
