74
 energy: -12.944329339645 gnorm: 0.000448704550 xtb: 6.5.0 (97a52f5)
C            3.48662989861529       -1.98397749827033       -0.41034983351340
C            3.29977697975246       -0.53325107869563       -0.80045991736574
N            3.60474875350542        0.38206407292146        0.31402603649566
C            2.43667918524602        0.82654108339003        1.09671606700669
C            1.97432080708767        2.21106590150270        0.69562012448804
C            4.92144007817526        0.77482972947532        0.63283179592234
C            6.01614374417603        0.34051410855552       -0.12491203086646
C            7.29644197878640        0.71564959466698        0.19715293436078
C            7.56580985169806        1.53312087694648        1.29539753303545
C            8.94248089777766        1.84365475976507        1.62138547140209
N            9.34702350150292        2.46503844443918        2.65713774245026
C           10.70902095380802        2.58708802604651        2.98336609707701
C           11.00300398016122        3.91369228219017        3.72080773117352
C           12.49814048951317        4.06053588927883        4.05094783589626
C           12.99575978830144        2.86653001754766        4.88563969510839
C           12.71769067234523        1.53756460901683        4.16295669398140
C           11.21741634669030        1.36929427275811        3.82829712918295
N           10.97021800546930        0.14384973439814        3.18800141662103
C            9.82187358385309       -0.40386693322080        3.18902661633106
C            9.45449929334304       -1.57331306070402        2.42682421343907
C            8.10649189384830       -1.82976650143308        2.17506021720869
C            7.71197184320689       -2.87586475783478        1.38091949771371
C            8.65236028275384       -3.73608229592770        0.80148942258086
N            8.25441005635781       -4.78904398449885       -0.04913846153885
C            6.85675533928168       -4.96372571950742       -0.48484762564038
C            6.48664956991837       -4.00394303901278       -1.59577141429043
C            9.22340472745377       -5.71589267153021       -0.66394964322593
C            9.64357394030896       -6.81634614317487        0.28703994957899
C            9.99760040573680       -3.50464420015102        1.07865312472200
C           10.42571460667165       -2.44500023027572        1.87415067570816
O           11.77152856547954       -2.25866378815523        2.12261941860036
C            6.46824877134457        1.98408042158659        2.07653588467629
O            6.65851509806021        2.78635388530236        3.18258795852768
C            5.17967001635584        1.60201195786294        1.72221563788070
H            3.27008827877775       -2.66421237903354       -1.23665441920179
H            2.83224382734370       -2.25204633089567        0.42048951536273
H            4.50891335201302       -2.17235540287805       -0.08083129636422
H            2.27078478203530       -0.34934075920590       -1.12813163189262
H            3.92199289040316       -0.26387145443173       -1.65946323885101
H            2.68754631747410        0.77791634225422        2.16101295397323
H            1.63133236929024        0.09615292310058        0.96260876285438
H            2.76989501295618        2.94562502962969        0.82711960350688
H            1.11398679936976        2.54369627453595        1.28025691003639
H            1.69014370288484        2.23647871800397       -0.35750618274760
H            5.85541764795901       -0.30763945526673       -0.96687481341569
H            8.12129129021969        0.35649087389682       -0.39448695628621
H            9.69647148381839        1.42790319985715        0.97473609329946
H           11.27778086133100        2.58528275784530        2.04108191970471
H           10.41511927860308        3.93291970523454        4.64434191994007
H           10.64011282151700        4.75946671389861        3.12402805856547
H           12.69129807743500        5.00883670175983        4.57137299068467
H           13.07209675404934        4.11604909428313        3.11783940395661
H           12.48668666522019        2.86489858018335        5.85723340974928
H           14.06556058387795        2.96893941219053        5.11478654667848
H           13.06491119623442        0.68051129435869        4.75299422162173
H           13.28553071749092        1.49657629789212        3.22754491541757
H           10.65036068469987        1.36967450843595        4.77165632548938
H            9.02744541543420        0.12038496573214        3.69329527028311
H            7.36724747288319       -1.16405372722576        2.58696659996665
H            6.66499210890884       -3.02533094695738        1.19089549826457
H            6.19907213894559       -4.84979802260839        0.38235691959375
H            6.72105825182870       -6.00164981030069       -0.80767737359027
H            6.61544811461953       -2.96806651329860       -1.27936085508823
H            5.45171651209307       -4.12842440041091       -1.92069861712727
H            7.12762441198472       -4.15036599613339       -2.46645493348176
H           10.08362905252356       -5.14033963235972       -1.01998783618224
H            8.77428823851450       -6.13929799652416       -1.56889136810421
H           10.09204055823318       -6.40516728107161        1.19233412069634
H           10.36915201664442       -7.49622238227024       -0.16451800874239
H            8.78275473640903       -7.40908614681321        0.60030835628631
H           10.74119352304751       -4.15675525465200        0.66513055187463
H           12.29689728506009       -2.94825948267698        1.66646946133652
H            7.63036797622520        2.88185918066089        3.25227238372731
H            4.37295288496094        1.96431303614721        2.32845682335949
