64
 energy: -11.339465189140 gnorm: 0.000799814745 xtb: 6.5.0 (97a52f5)
C            1.38766900424513       -0.71752067160297       -0.33569441199920
C            2.64159027595237        0.10702591486365       -0.11893706191966
N            3.02858161389507        0.26798687631262        1.29891786759841
C            1.95495336016610        0.62430408231819        2.25119442593169
C            1.48942000666116        2.05443636108583        2.07938890425310
C            4.39198368520898        0.44445873503233        1.65009710561937
C            5.33083555274547        0.89287717405527        0.71217957608499
C            6.64896298548562        1.06403601358458        1.05387422484852
C            7.11243954582639        0.79618996923569        2.34274088452083
C            8.51637400516312        0.99067919859560        2.64296095654422
N            9.08448834966291        0.75433835969193        3.75835641607263
C           10.45021423145264        0.95286566378571        3.96130998502618
C           10.95109856803613        0.36823899889387        5.28324513864503
N           12.32327150997248        0.53234817856890        5.46737894945400
C           12.96344199409175       -0.09946390111871        6.36783865693007
C           14.38253961567632       -0.01031943946967        6.61086631010543
C           14.97068965703749       -0.87284818973986        7.53625714254381
C           16.31798604163291       -0.84201303447013        7.79148825927413
C           17.15679963520349        0.06302767152388        7.13121697848690
N           18.54436325830497        0.09103330836716        7.38430130125637
C           19.18046264025001       -0.76918862337239        8.39906210854254
C           19.49214014879622       -2.15107160768690        7.86454855238339
C           19.46490197796836        0.97561709582201        6.64725092616515
C           19.51938362912798        2.36803017953636        7.24032033189412
C           16.57434630210891        0.93212939887935        6.21231812692942
C           15.20950566380883        0.92206243531617        5.93433867436798
O           14.68145131410778        1.81182725662169        5.01982454816038
C            6.17404810116225        0.33729185604653        3.30705284733950
O            6.55941475311974        0.04419213195949        4.59846091604827
C            4.84311418863386        0.17643319626435        2.93959246441968
H            1.19950441429291       -0.90270468436164       -1.39549860499742
H            0.50400671757378       -0.21907635839091        0.06443197198487
H            1.46887354873058       -1.68671536085944        0.15863412996294
H            2.53761957179353        1.10405843547400       -0.55911452485085
H            3.48200057223259       -0.36842131919093       -0.63586929828887
H            2.31603550637637        0.46445634939570        3.27062905334171
H            1.12708341624571       -0.08066740525493        2.13012916995423
H            2.32102543735789        2.74996132339517        2.20272560231020
H            0.71770325439141        2.32603970332610        2.80274656831461
H            1.07929666510499        2.21902758409869        1.08212007893471
H            5.00488710087256        1.13556394799289       -0.28343166696835
H            7.34891814846408        1.41539994783946        0.31496784085582
H            9.13803571429272        1.36091521924801        1.84524698349597
H           10.66214528966407        2.02769758124214        3.92289990070304
H           11.00247001650506        0.50115204721867        3.12882072201779
H           10.71043872088419       -0.70064181022612        5.32402840724797
H           10.42258352812117        0.83375302216670        6.12320966709728
H           12.40251868980118       -0.78036673658950        6.98603948279806
H           14.34635288556828       -1.58272625565007        8.05154654933601
H           16.73509895952019       -1.53177038493755        8.50222997223373
H           18.52964774561566       -0.81506304736329        9.27782874311079
H           20.09300832851714       -0.27351079578242        8.74733734042742
H           18.58888858622667       -2.65209393076805        7.51422040768440
H           19.95542703772963       -2.79014942262353        8.61935914926608
H           20.17322748594586       -2.09559569187020        7.01407080418629
H           19.16448754560978        0.99743197274714        5.59473241369950
H           20.45941148373615        0.51597400863704        6.64912578334630
H           18.53317386472531        2.83407193725035        7.24543258608955
H           20.19354413518684        3.02471774966343        6.68665696211324
H           19.86154808260437        2.33652875576177        8.27585734424127
H           17.18917005561755        1.64485090356741        5.69911139527112
H           15.39032175223336        2.37802822261374        4.65091776874575
H            7.52139518749494        0.22308097115100        4.61464496678005
H            4.16556893545469       -0.20493106785478        3.67823122401356
