43
 energy: -8.360760281083 gnorm: 0.000765872378 xtb: 6.5.0 (97a52f5)
C            1.66449472825450       -0.22056001354919        0.90360923109828
C            2.58044799920632       -0.18869989410590       -0.30310732398506
N            2.99854162119760        1.17727581876503       -0.68114242482100
C            1.94265104525098        2.18339082363448       -0.91751015123823
C            0.94920150668234        1.76058472370950       -1.98028927878875
C            4.37094823173459        1.50076379449809       -0.85828234895757
C            5.27441746215015        0.56171365414306       -1.36404078337405
C            6.60121288182593        0.87577874681855       -1.53012830604627
C            7.10072285167466        2.13723081059594       -1.20051476133978
C            8.50306621834259        2.40984679064218       -1.39077824412213
N            9.09617189327260        3.51087364417651       -1.09614982397333
N           10.41144202935915        3.70495836474137       -1.30212568729847
C           11.10866028700181        4.86662749525515       -0.94423556249550
C           10.44824790541255        5.91389006803146       -0.30878509446959
C           11.12446778060457        7.05579127004280        0.04748311621891
C           12.48496482492165        7.18649599107107       -0.22006235304950
C           13.17718820546273        8.35089570750967        0.14264896211326
N           13.75229955028496        9.31470643828775        0.44194562026571
C           13.14564675784272        6.13744597880435       -0.85557417839966
C           12.47031209050463        4.99478552820995       -1.21251665800533
C            6.19164018337144        3.10484318459754       -0.68444027260177
O            6.61192843334207        4.37141100817617       -0.33286062893000
C            4.85534949576203        2.76417677048997       -0.52857860455933
H            1.41445919000489       -1.24109715893153        1.20051882061064
H            0.72633758782638        0.29958604601330        0.70901990993829
H            2.13334411012103        0.26894949398214        1.75820835195324
H            2.11161837873186       -0.65822020065397       -1.17373648578840
H            3.48169382895865       -0.77358258287014       -0.09455525563355
H            2.42324510323961        3.11999854788361       -1.21614068596774
H            1.44571208569647        2.39257270788044        0.03494866724697
H            1.45975540603773        1.52670289057565       -2.91559117874806
H            0.21507761622974        2.54168240699499       -2.18818725411450
H            0.39943927192930        0.86767590267540       -1.68119085127535
H            4.91398357615085       -0.40834286316486       -1.65691007301777
H            7.27777787115225        0.13734145575070       -1.92505815891486
H            9.10924454007341        1.62426624917488       -1.80516608192300
H           10.92311686269844        2.95126561022931       -1.75731164726681
H            9.39903387767015        5.81265007363641       -0.09826974606506
H           10.60864859314897        7.86340805540627        0.53901138851777
H           14.19760032643489        6.23422894215140       -1.06423467560097
H           12.98673250509191        4.18848564812926       -1.70381930239011
H            7.57266977857165        4.37755106263502       -0.51981233815815
H            4.19548550676257        3.49651100795755       -0.10491784664349
