78
 energy: -15.074164729047 gnorm: 0.000631955750 xtb: 6.5.0 (97a52f5)
C            1.19279965698399       -0.51277416822147       -0.35924783794379
C            2.65482274232129       -0.13651428877646       -0.20980885045052
N            3.09020497646076        1.10725744895239       -0.89046563012095
C            2.19304710412976        1.71345023062679       -1.89452836257323
C            2.46345040340630        1.19223015883407       -3.29007967069485
C            4.42290763601530        1.54343932383950       -0.76446694154919
C            5.33012632037672        0.87562670722309        0.07454112824559
C            6.63883619296253        1.26895791373967        0.16505471699312
C            7.13160085059776        2.35235666723384       -0.56889270980055
C            8.53434702249116        2.65488459551267       -0.52038595505558
N            9.12257677652224        3.57234754061233       -1.20508545349193
C           10.51104532514204        3.63383135702426       -1.34986368877558
C           11.25613651395202        4.39722540741720       -0.48426192170534
C           12.66098338130676        4.48174742678341       -0.55669310460691
N           13.31258171696807        5.24444378930936        0.32398960458125
C           14.64276992060386        5.25706708227611        0.17732156784869
C           15.42456608630876        6.03929960573809        1.05974040388043
C           16.78102537000271        6.08952075171824        0.95264137754478
C           17.43579714005578        5.35904903289211       -0.04355864734744
C           16.72170307555453        4.59236199926166       -0.91321339359144
C           15.31115839344769        4.51152216438718       -0.83948126057723
N           14.65645884605211        3.74633934028816       -1.72091837532374
C           13.32952288352748        3.73536850803969       -1.57453135164194
C           12.54879902295878        2.95756847857451       -2.45414343623558
C           11.17938096235043        2.88579009464430       -2.38003382080079
N           10.51188294608634        2.08340816572236       -3.30012116300494
C            9.24457483410871        2.07392567683471       -3.48924038435138
C            8.51143063777283        1.25938070412982       -4.40282961237404
C            7.11963502944386        1.37963280599738       -4.43285306084012
C            6.35419427239695        0.61324458727372       -5.26680444828376
C            6.93829650865039       -0.33137387220334       -6.12493088068527
N            6.13769380433813       -1.12173070899003       -6.97451327020326
C            4.75622055568781       -0.71240606193133       -7.30031521408527
C            3.72746133736588       -1.27748166693974       -6.34096166315215
C            6.69327725770194       -2.25341565822883       -7.75070511402599
C            5.76507381988589       -3.44654857944730       -7.87210006365658
C            8.32839269506172       -0.44396782467897       -6.11024754896794
C            9.13328314646170        0.32520569878941       -5.27296170502175
O           10.50359113452443        0.18397106775843       -5.29415810127833
C            6.22408981826373        3.05528888089123       -1.41165225032893
O            6.62603190976231        4.12982671787930       -2.17216708004498
C            4.90157103116437        2.63461337928911       -1.48572282777547
H            0.95719236130987       -1.43737145430352        0.17215786693192
H            0.92407684118892       -0.66707142906346       -1.40498179809961
H            0.54029902086406        0.26381050699945        0.04233749321548
H            3.28968177152259       -0.94747243065250       -0.58263570017123
H            2.89263383762833       -0.02314562694047        0.85309840886031
H            2.30171362144758        2.80127491868439       -1.84659007654695
H            1.15384994189561        1.53453433880030       -1.60646390301206
H            3.49109657885854        1.39587335939171       -3.59256470459320
H            1.80292026921988        1.64270909321389       -4.03366209946360
H            2.32808507424278        0.11097935591174       -3.33616813834738
H            4.99946429450851        0.02694151338284        0.64501195189454
H            7.31697353463396        0.72450708690883        0.79988961487857
H            9.16697328200851        1.98754398143904        0.03996762863764
H           10.74989573563974        4.94632202447125        0.28637015265411
H           14.91753399084167        6.59807438554896        1.82657769094909
H           17.35430898296946        6.69357976546391        1.63658021045820
H           18.50973574535450        5.40485727906057       -0.12018759585443
H           17.22276543559088        4.02899579165457       -1.68056070633576
H           13.05005710374421        2.39760188803667       -3.22047213939906
H            8.65302648455899        2.73533835665821       -2.89035088119040
H            6.65002094613658        2.08610837307409       -3.77019308672331
H            5.28631746540176        0.72958907307349       -5.25528616077986
H            4.53825950091686       -1.01220771722990       -8.33036624724193
H            4.72207594941204        0.38206457697539       -7.31418002529116
H            3.69222360752360       -2.36578369622172       -6.39007942791342
H            2.72272803067742       -0.90721607785309       -6.55458800195190
H            3.96350050900252       -1.01936971623597       -5.30841767472323
H            7.62009839029010       -2.57807400984654       -7.27013765592567
H            6.97647428239281       -1.87334287907857       -8.73775725589421
H            5.47965367154024       -3.81933625953952       -6.88754299996559
H            6.23322685210475       -4.27255592821566       -8.41167234729078
H            4.84841628031343       -3.19367171493360       -8.40543263651867
H            8.81282003201436       -1.11790755111489       -6.78821998489209
H           10.76620123687958       -0.49569014908338       -5.94758483140047
H            7.57107639775236        4.26558045388952       -1.96110910951472
H            4.25263388050530        3.17813003748334       -2.14337982835520
