68
 energy: -12.583629365058 gnorm: 0.000784835069 xtb: 6.5.0 (97a52f5)
C            1.41355872610468       -0.05841419892921        1.03821591482588
C            2.72095472839715       -0.77886521999431        0.76915226576931
N            3.10615778054196       -0.85267732467794       -0.65747241313598
C            2.04596756831963       -1.23309930770618       -1.61579351436483
C            1.82837593032999       -2.73047543154747       -1.65019069725023
C            4.46937668316661       -0.97243153058047       -1.01805439986981
C            5.43605083852868       -1.35730624328288       -0.07675147449756
C            6.75022934662906       -1.49757590362778       -0.43212607155659
C            7.18974456613701       -1.26624098529708       -1.73767350940332
C            8.57613715480376       -1.47679256270797       -2.04590121036994
N            9.14066887577564       -1.34187201607850       -3.19026714791672
C           10.47708382380004       -1.61884370114479       -3.47311403842107
C           11.04572962027668       -1.07689883857592       -4.62337323737375
C           12.35946284405877       -1.31543075394599       -4.95254379712063
C           13.14532108641391       -2.10989852214522       -4.13809552593238
C           12.61189700838936       -2.66575047125266       -2.99984586186122
C           11.28302710223572       -2.44270617160690       -2.64675718626024
N           10.75247686799594       -3.03396878958524       -1.49753769813490
C            9.96974428902460       -4.05446464183052       -1.54512786766416
C            9.10277355101362       -4.47472195235284       -0.48422689244155
C            8.28559467264601       -5.59448845456070       -0.66399961271549
C            7.35790788567837       -5.95978940628235        0.27474508185173
C            7.19730511633123       -5.22509394063743        1.45882883067236
N            6.17420576632725       -5.54714337029377        2.38164359508995
C            4.88604671577516       -6.07525727843105        1.88387494715815
C            4.11552664524523       -5.03483785463169        1.09820779349988
C            6.17864615377949       -4.94482004580334        3.73341342976069
C            5.46839288419483       -5.75850061923350        4.79932182948067
C            8.02951581399676       -4.12550857115294        1.65846529825981
C            8.96404209093321       -3.71768784719272        0.71090342155685
O            9.69532529418950       -2.56577619879739        0.91431807534264
C            6.22592472236701       -0.86730974222978       -2.70579197806431
O            6.59495154420287       -0.61874167236080       -4.00944233605089
C            4.89641224185475       -0.73256850714934       -2.32297021259233
H            1.24539120233144        0.09461983004419        2.10659220796259
H            0.55798056089646       -0.61858577965569        0.65902545438954
H            1.40383394862188        0.92220062028947        0.56003605789704
H            2.69466862853400       -1.79815706094115        1.16763520214745
H            3.52969672171960       -0.26455591183204        1.29878171341507
H            2.31023925829180       -0.85826549073927       -2.60822351395296
H            1.12346020028918       -0.70630221994389       -1.35691671114487
H            2.74762509480364       -3.25029778785003       -1.92432326944378
H            1.05580395351994       -3.01890741966497       -2.36605218435157
H            1.52927280564832       -3.10528156749531       -0.67026740738834
H            5.13446891901698       -1.58761157840465        0.92919299608271
H            7.47005688453642       -1.82027706446176        0.29815344443765
H            9.18896516232578       -1.82571658994023       -1.23477663105502
H           10.43433104414686       -0.45608892757732       -5.25451715825100
H           12.77823784049887       -0.88153922515375       -5.84579330101041
H           14.17499592250465       -2.29473224779048       -4.39711763553825
H           13.21460244451598       -3.28990710669795       -2.36381919382734
H            9.86623976946505       -4.54803401794996       -2.49694513181925
H            8.38043939849192       -6.16423581041950       -1.57257202293743
H            6.74710913627279       -6.82760199817637        0.10505352546111
H            4.29357341658237       -6.44188619501284        2.72575936875176
H            5.08324550655452       -6.96235763567847        1.27505273390214
H            3.89437846902838       -4.16406027227095        1.71684858365208
H            3.16779200157936       -5.42246678875214        0.71858959670916
H            4.69477632078545       -4.68003696203780        0.24428731163749
H            5.75150445672259       -3.93935743292418        3.65876813927082
H            7.22582704357195       -4.81255971595350        4.02522783741811
H            4.38814073554888       -5.77078495443394        4.65027440813666
H            5.64380713174780       -5.35726314999656        5.79991552289077
H            5.81447808554950       -6.79308201122236        4.79451788456978
H            7.90312336142450       -3.52183322054567        2.53579845374122
H            9.52970150915408       -2.21223383979426        1.81339131041986
H            7.55689994342760       -0.80177125199502       -4.02965557578406
H            4.19726718227918       -0.40688113937161       -3.06758581672209
