46
 energy: -9.071622614342 gnorm: 0.000225204994 xtb: 6.5.0 (97a52f5)
C            2.44368064797337        0.22695352531868       -0.69106085959108
C            2.14830903383524        0.92193497123914        0.62304241179028
N            2.75591747701082        0.22733669874827        1.77556251038144
C            1.81058105883929       -0.41929353840502        2.70725113080119
C            1.41864234829675       -1.81398408337453        2.26488467107087
C            4.15084146075366        0.14186575576044        1.94911619269088
C            4.71617150881170       -0.79617228345454        2.82204316741415
C            6.07412104177182       -0.88340088641639        2.98574729010952
C            6.92977762794578       -0.03088530639212        2.29177729109123
N            8.29200932561935       -0.12562099639043        2.46552318063470
N            9.07433016190054        0.68298417905140        1.94396249908277
C           10.43543279485279        0.53895377604410        2.08140601141337
C           11.26307791353890        1.63559673072376        1.87893572378972
C           12.63198763506479        1.54950987322696        2.04830464930963
C           13.46972876755366        2.73213262493798        1.84944237769986
O           12.97673221649969        3.79395359937792        1.48819818649562
N           14.81749769979040        2.60983286014765        2.08800297838299
N           15.41993866203587        1.32237087783074        2.34924441732235
C           14.65119417401121        0.21086478033059        2.60244694578278
O           15.15844409332410       -0.84589311721984        2.96018773066347
C           13.20512660618409        0.32657808093766        2.42562587227798
C           12.38431419320665       -0.77338602425601        2.61995112308896
C           11.02161566895833       -0.68581988973273        2.45025577804638
N           10.21518521872503       -1.89674248551261        2.62265523868293
O            9.98670460452003       -2.29773600353662        3.77362912099641
O            9.81283343203552       -2.49255459480526        1.61214070299667
C            6.37910080099162        0.90808020572337        1.42483989811535
C            5.02117507528885        0.99192312091689        1.25499257827561
H            1.99391064456130        0.74616193572766       -1.53967128806874
H            2.06151778014818       -0.79430878825139       -0.68629033485587
H            3.51678431229815        0.16171887050123       -0.87247436777654
H            1.06731006533526        0.98490112922376        0.78385920333370
H            2.50167445341203        1.95757776290677        0.61935800346918
H            0.92793019968348        0.22164344807283        2.80321801559649
H            2.26278354315463       -0.42828959819715        3.70392121346288
H            0.89120924213386       -1.78837413777365        1.31085312295687
H            0.76600520432786       -2.30460675793245        2.98971227696766
H            2.29734269840865       -2.44473509958087        2.12703392992051
H            4.07821078413559       -1.47397724249780        3.35935369465006
H            6.50422637230410       -1.61299138165912        3.65013143480776
H           10.83135165585734        2.57975178361959        1.59976913981292
H           15.41512483918472        3.39969561420675        1.87909651168304
H           16.41130074876298        1.27476840877881        2.54863758832737
H           12.82651641978920       -1.71231342191676        2.90451314460473
H            7.04251779934643        1.56612914088533        0.89175421402688
H            4.61878198780858        1.73700588306520        0.59304567825781
