53
 energy: -10.371859409176 gnorm: 0.000981359049 xtb: 6.5.0 (97a52f5)
C            2.13191672386265        0.82129536575527       -0.96857395222906
C            2.29548417647000       -0.17771851093510        0.15829754508218
N            2.88573374125063       -1.45241620650691       -0.30801776293481
C            2.01353849024943       -2.35313637611328       -1.09317995657146
C            0.67552668472208       -2.64279908599895       -0.43897074976911
C            4.29103276291544       -1.64174720201919       -0.30485017874120
C            4.94128853880981       -2.24684404071966       -1.38875484265922
C            6.30062442020975       -2.40041179276729       -1.39072394043680
C            7.07672088720656       -1.98384919947374       -0.31098812941766
N            8.43943007086352       -2.14484382792036       -0.38709207901205
N            9.21192652543970       -2.11125303952693        0.58135910351348
C           10.56996393912046       -2.23230746893988        0.43719889378126
C           11.35419278425947       -2.32452647573588        1.58831579045485
C           12.71177840135209       -2.44628524345213        1.49742405212518
C           13.34389413209161       -2.47568098574544        0.25901011867959
C           14.79973720352936       -2.59255114391682        0.21264267358413
O           15.45504782945963       -2.71067337657961        1.24239077579724
N           15.40901074205309       -2.55920253323097       -1.01644559823428
N           14.63110619831490       -2.63370517090578       -2.22507616428734
C           13.27219749255719       -2.41833504044802       -2.21384412120895
O           12.67857884779206       -2.26637265753598       -3.27379704326782
C           12.58464967882213       -2.38291767631573       -0.91675677797480
C           11.19325184441242       -2.26235588847878       -0.81888271729875
N           10.36006187699827       -2.15534557465804       -2.02287706645879
O            9.94117148946889       -3.19597340153540       -2.55176485618127
O           10.08689461393051       -1.02664527486905       -2.45728317815923
C            6.44453527655775       -1.38779064079336        0.80486744626422
N            7.23867048843876       -0.93622780354703        1.87332131178092
C            7.00827587261680       -0.46883483917271        3.16357512670867
C            5.64995205352997       -0.50513566780151        3.77127372168101
O            7.94060072861641       -0.02864632882421        3.80282386866485
C            5.06919510438470       -1.21720358102140        0.77128331089299
H            1.73492535852540        1.77585660384663       -0.61605967059423
H            1.45332770694199        0.44435644596805       -1.73489186239815
H            3.08972456189257        1.01641212120083       -1.45375672987235
H            1.33982813211587       -0.38776236111896        0.64663947310327
H            2.93254877194709        0.23988893600220        0.94214926658701
H            2.55791918074006       -3.29297505323441       -1.23381111118286
H            1.88171772404465       -1.92152803801931       -2.09023423618380
H            0.81354951765194       -2.99453992109421        0.58448618012720
H            0.11704865544457       -3.40924188924122       -0.97990755566803
H            0.04467092512865       -1.75436827076195       -0.40016298498419
H            4.36823288005624       -2.55204277723356       -2.24600889929649
H            6.80225942469902       -2.84363984984978       -2.23424873580699
H           10.86737133936987       -2.30101469831788        2.54846315334374
H           13.31803095451914       -2.51859855141342        2.38513561644732
H           16.40469655675231       -2.73806682033195       -1.06124203968913
H           15.11097446144595       -2.56860115267507       -3.11399072794012
H            8.23839990028952       -0.96592523620294        1.67743393950792
H            5.13439298778999       -1.43485701614711        3.53324859461041
H            5.05052204021836        0.34163512189685        3.43937773139912
H            5.73294898098465       -0.44409442713016        4.85592652108692
H            4.58149031914192       -0.74574247638856        1.59833945322556
