40
 energy: -7.653101798232 gnorm: 0.000591535609 xtb: 6.5.0 (97a52f5)
C            2.38474850784949        0.14606015229225       -0.77300554214939
C            2.12612876560661        1.17046571351671        0.31275833152287
N            2.78186308198500        0.82149710924463        1.58843390531819
C            1.88283792607767        0.36072007933271        2.66463606366395
C            1.63881785128121       -1.13282200137591        2.61874219661190
C            4.18031655060965        0.84343772386959        1.74027094186537
C            4.79992629432939        0.26890656919872        2.85806777188019
C            6.16313388539173        0.28952434841179        3.00326065126036
C            6.97352581258049        0.88708000276744        2.03877241828282
N            8.34509337926566        0.90218833512532        2.18537215214158
N            9.08192036613400        1.45407707905832        1.34609620006597
C           10.43738729451647        1.43879628959269        1.50726224194431
N           11.28437261973704        2.00695268593037        0.69298920672937
C           12.58871884684984        1.82199914679967        1.10957109123780
C           13.73017948692711        2.30387240317168        0.45022427114247
C           14.97493850734143        2.04647169960316        0.97513297711368
C           15.11647874506189        1.31458418533467        2.15040234454360
Br          16.84068569878514        0.97788824679543        2.84650304520021
C           14.01332035259412        0.83326371131186        2.81067470471106
C           12.74850942074396        1.08514685545132        2.29155121311557
S           11.18754270794248        0.61677623404077        2.88224337910763
C            6.36736591651318        1.46286186909263        0.92524268155667
C            5.00439126299856        1.44196714703372        0.77821664061161
H            1.90841499383162        0.41909600616360       -1.71677619339395
H            2.00693778253479       -0.83499673364829       -0.48363852753800
H            3.45208699288494        0.02919102821490       -0.96280486171485
H            1.05042694542647        1.27320059223357        0.48898729696331
H            2.46425689912066        2.16712124507430        0.01235784433240
H            0.93897994721008        0.91081121968711        2.58878572307878
H            2.30872345806196        0.66613618393863        3.62545870395699
H            1.13713229602096       -1.41993578046234        1.69415674946538
H            1.01668190708234       -1.47244499582969        3.44919901051199
H            2.57756015099951       -1.68627339827923        2.65760472406697
H            4.19946191186388       -0.21075597410586        3.60931433678086
H            6.63003820158531       -0.15650848605517        3.86388756035847
H           13.61448673778918        2.86851407214770       -0.45727896960341
H           15.86121937196706        2.40980484706390        0.48158317487056
H           14.12534316936471        0.26701817172404        3.71902495877787
H            6.99326620366075        1.92422367117638        0.18226563818504
H            4.56199974947944        1.90199274535753       -0.08654605657830
