96
 energy: -20.531377305173 gnorm: 0.000702154303 xtb: 6.5.0 (97a52f5)
C            0.78418421513448        0.21700617815601        0.43582193709595
C            0.04485090831585        1.01455802766761       -0.34900370898968
C           -1.39609430523919        1.11273610475138       -0.23183836708306
N           -1.99812903238506        1.96492355167659       -1.06683709328920
C           -3.32506782319005        2.06675224235434       -0.95394390125482
C           -4.01401699883003        2.98987262924076       -1.83524675327851
C           -5.33045113403616        3.26533045252425       -1.81253302247733
C           -6.00846726384196        4.19236408715895       -2.69785698114428
C           -7.36836913366149        4.45726049412688       -2.50444436367712
C           -8.04345178689543        5.33059614646304       -3.31959357384296
C           -7.39290234555933        5.97997460011020       -4.36847046018630
N           -8.09523028522347        6.89620833399853       -5.21268463326300
C           -9.18850625237943        7.66884992593123       -4.69043990232909
C          -10.32855362158767        7.89646392222295       -5.45767889904039
C          -11.37814925074375        8.63266066449488       -4.95570392243898
C          -11.30877673840653        9.15697473080035       -3.67953959147621
C          -10.18338199854142        8.94372105385491       -2.90736258616587
C           -9.13243179099748        8.20807831513847       -3.40724338416416
C           -7.72363784104845        7.04456858270352       -6.59268316645387
C           -7.74695370545996        8.29619895307911       -7.20353230961523
C           -7.39982467114940        8.43872661299995       -8.52824123673281
C           -7.02465274702756        7.33429621277236       -9.26837781393578
C           -6.99894825862286        6.08568098446667       -8.67804748834534
C           -7.34547249556269        5.94066397796842       -7.35346754773157
C           -6.03796648452383        5.71494014896355       -4.56788704751312
C           -5.35960667835660        4.84243152591213       -3.75327329309345
C           -4.00992414945780        1.31017729652936       -0.02329697679851
C           -3.30734356629346        0.44887052989397        0.79621127154414
C           -3.97777592731908       -0.37156285651786        1.78668509756062
C           -5.30914860655632       -0.49562659181956        1.93263998896472
C           -5.96895220663703       -1.31678288149114        2.92929580500231
C           -7.35783784432562       -1.47628329643346        2.87997865164458
C           -8.01585383829923       -2.24413832470416        3.80751499642283
C           -7.31808637339742       -2.88517173185008        4.83087189296224
N           -8.00428252775230       -3.68571189273642        5.79759017233256
C           -9.18211065407601       -4.41957861790695        5.42616564636757
C          -10.25217824821635       -4.54134204152578        6.30948920437706
C          -11.37830364588092       -5.25004179450859        5.95560813106074
C          -11.45687782136669       -5.85146340407533        4.71446249931677
C          -10.40329327992459       -5.74189324822100        3.82781856275802
C           -9.27620451753250       -5.03367262186979        4.17938606763520
C           -7.51767054865846       -3.76501436408863        7.14722864446885
C           -7.54647944344787       -4.97097086745887        7.84347744071842
C           -7.08452303529550       -5.04582280742042        9.13831491455572
C           -6.58720722339984       -3.91831009320965        9.76265345976041
C           -6.55399730510718       -2.71422356172099        9.08637690484041
C           -7.01440375084018       -2.63697867356021        7.79114805630274
C           -5.93360424298516       -2.72451918580136        4.88691861425485
C           -5.27223717853299       -1.95989342452626        3.95814326064570
N           -1.97929604609183        0.35020158668583        0.69682731215632
C            2.22807309049733        0.06595755454497        0.38224314007580
C            2.85652410997253       -0.83412755457168        1.24539497386338
C            4.22328477667780       -1.00249869435742        1.22028739993355
C            4.99459133007053       -0.27675468776573        0.33461820915621
C            4.39308573214989        0.61933807301921       -0.52665106744375
C            3.02614648817912        0.79087400244795       -0.50556428079818
H            0.26456751248690       -0.36698625132588        1.17369566448095
H            0.51386836194608        1.61702455128689       -1.10305281324360
H           -3.39082883191162        3.49336408844619       -2.54965133732863
H           -5.94728866836730        2.77974230004922       -1.07930207639764
H           -7.88691069827520        3.96506135097248       -1.69948136117488
H           -9.09172969738497        5.51685767335506       -3.16490387188239
H          -10.37974611569009        7.47901873689251       -6.44802381945802
H          -12.25588370198060        8.79877447642130       -5.55871727253456
H          -12.13129326773721        9.73220872295049       -3.28692400807430
H          -10.12770680977294        9.35438118896272       -1.91240543291918
H           -8.24940573085873        8.04705502170488       -2.81385447876252
H           -8.03466381308551        9.15336260060647       -6.62026302162733
H           -7.42047617809613        9.41314257326967       -8.98838760742558
H           -6.75346222762291        7.44660645696244      -10.30540295395851
H           -6.70900375613000        5.22309971041734       -9.25557247748810
H           -7.33885963493746        4.96865914972700       -6.89209803199575
H           -5.52449550946089        6.21748789687967       -5.36876423174688
H           -4.31701278270328        4.65408418705631       -3.93578439529988
H           -5.07466682883438        1.39355121161121        0.06612568908359
H           -3.33055728577987       -0.93568252420684        2.43120460586120
H           -5.95416992085239        0.03265832998818        1.25513771855218
H           -7.91207564196498       -0.98702553430520        2.09733968638125
H           -9.08557435408219       -2.35025835874424        3.76307322129514
H          -10.18778637598715       -4.06511346048983        7.27217042579790
H          -12.19998966473534       -5.33516440509870        6.64786994508156
H          -12.33852359147462       -6.40654345084604        4.43848172973808
H          -10.46285201325421       -6.21282388287401        2.86017446469755
H           -8.44805335597977       -4.95469852404703        3.49698597988317
H           -7.92852903772712       -5.84689216595887        7.34897913928066
H           -7.11009800421420       -5.98564075454743        9.66530634118481
H           -6.22632412098063       -3.97769452109467       10.77647307188438
H           -6.16874007237956       -1.83365338771560        9.57407989396692
H           -7.00060045451776       -1.69966234748781        7.26293358569147
H           -5.38619226547299       -3.22217350119310        5.66813269127348
H           -4.20541732422802       -1.84809768125826        4.03111976157752
H            2.25703248325578       -1.40165272122679        1.93656591541472
H            4.69184139072304       -1.70266612947029        1.89266319308990
H            6.06399464389609       -0.40994550341548        0.31482567178481
H            4.99548455032612        1.18602145239963       -1.21798014193689
H            2.57096276746396        1.49297914086069       -1.18090794596613
