42
 energy: -8.177887720448 gnorm: 0.000588598732 xtb: 6.5.0 (97a52f5)
C            1.76573403779150        0.16095309211196        0.90816985490643
C            2.42542219448398       -0.01924168966606       -0.44388459191833
N            3.08009143691120        1.21518173885083       -0.92985737725206
C            2.22575345146708        2.40788357710634       -1.11868757612602
C            1.00141183637709        2.14509064191253       -1.97287276805431
C            4.48472557193674        1.29383352440883       -1.07417507565654
C            5.17369910835823        2.48312776660012       -0.80165041432450
C            6.53474758708175        2.56039334325735       -0.94283670279494
C            7.27008783464680        1.45405741343751       -1.36742711138161
N            8.63828095822278        1.53328870319057       -1.51154293406062
N            9.29997243169893        0.54962544867515       -1.89219920823692
C           10.65324939993060        0.63871467066665       -2.02502716610215
N           11.42009913255276       -0.34578547109604       -2.40820766920575
C           12.74574936139490        0.02778465704046       -2.45137197522342
C           13.81547604996673       -0.80232560139396       -2.82330207416224
C           15.09019250142961       -0.30163858310373       -2.81878416937895
C           15.34350084377075        1.02063681784769       -2.44989968351628
N           16.71379245524957        1.53101859142850       -2.45049970175060
O           17.63247981839189        0.77159759462767       -2.79711078770761
O           16.91053380764560        2.70660255616029       -2.10324789866192
C           14.30503310857082        1.84708601658095       -2.08246550414639
C           13.01206853282154        1.35451159769859       -2.08356396687015
S           11.52048205298937        2.13872080121785       -1.67908767767942
C            6.59253728571697        0.26842505705016       -1.64232726468456
C            5.23206550198702        0.18723935223373       -1.49824446269129
H            1.34549087200789       -0.77314940925385        1.28604435921365
H            0.95632917855848        0.89008395076672        0.86358743915468
H            2.48545330929504        0.52302827571684        1.64371107363751
H            1.70774362864324       -0.35224504599723       -1.19964702457517
H            3.17879731299392       -0.80942829074718       -0.38205022366821
H            2.83507005061584        3.18640405458437       -1.58799870577695
H            1.94944494525635        2.79208264306089       -0.13188834943461
H            1.28672517330717        1.73054714573249       -2.94051185009125
H            0.42963431993700        3.05661218161879       -2.15740565987335
H            0.32756668238000        1.43045915885072       -1.50013682071909
H            4.62720440606796        3.33588951689877       -0.44025938092069
H            7.05750666952534        3.47482754710547       -0.72367784200005
H           13.61584533050123       -1.82068524989699       -3.10516089172888
H           15.92244085244788       -0.92338163225264       -3.10145636221998
H           14.50124852262476        2.86508647687834       -1.79789492146023
H            7.16139858510791       -0.58115597042004       -1.97592501672169
H            4.72392385933279       -0.72447696948721       -1.75664591614017
