78
 energy: -14.604277705656 gnorm: 0.000779742098 xtb: 6.5.0 (97a52f5)
C            0.64384727567299        1.23984679600776        0.10203080876078
C            2.06621218926829        0.71279026738204        0.11682282993238
N            2.52635228141908        0.00123367963271       -1.10279730508105
C            1.52144919896794       -0.35582661284410       -2.12598119119365
C            0.96703574946389       -1.74898256562682       -1.91607886412946
C            3.83291247750881       -0.44883188578347       -1.19478005008609
C            4.28785136681197       -1.18202331161381       -2.31086674160560
C            5.57753949094285       -1.62087135673798       -2.39572310807980
C            6.50374968615169       -1.36421441580663       -1.36895248227358
C            7.90152860294665       -1.83829429909412       -1.46029822863781
C            8.39733477092417       -2.87909738855390       -0.63484322542070
C            7.74159354243180       -3.69609338191278        0.35081713490543
C            6.32092602278635       -3.63389331155362        0.77164153613933
C            8.68016306608732       -4.55550450863229        0.86530542976721
C            9.92585503143166       -4.33665829075893        0.20687236369716
C           11.19639341418394       -4.94174715507825        0.42870971831079
C           11.45340734323360       -6.12783532393775        1.05398913337465
C           10.51679803813730       -7.18877201967718        1.33529026746304
C           10.78413939682294       -8.10880403580564        2.36346828642225
C            9.93366110284615       -9.14476208826243        2.62202392733996
C            8.76798575515702       -9.34432805973965        1.85744370374745
O            7.96494681414658      -10.41664402140363        2.18798206878650
C            6.82488674878764      -10.58070103332821        1.35784815398430
C            6.01587731287012      -11.78269947969152        1.77704065218273
O            6.37307909296958      -12.88765692266180        1.43476981572956
O            4.91886341514868      -11.51266073986627        2.54125346965434
C            4.26680500558311      -12.69678474006225        2.88712996217443
C            8.51409937991570       -8.43819392520508        0.80910345127145
C            9.36595031905098       -7.40120427455752        0.55640879246123
N            9.69505740196046       -3.32245160625399       -0.66833078134893
B           10.77066261323441       -2.79089584558084       -1.62249096681605
F           11.82676001571926       -2.27306360201296       -0.88405347552472
F           11.19170919119869       -3.81812841430440       -2.45702130224960
N           10.14973319459827       -1.67688067873269       -2.47232648066277
C           10.83362657791343       -0.97440395970467       -3.38320808384115
C           12.25625314518164       -1.15204310098541       -3.72728969837516
C            9.93050145214509       -0.03145482868973       -3.91024855863773
C            8.70218629161685       -0.18857850051980       -3.29105886614153
C            7.49520180672027        0.62909774959328       -3.56403176159726
C            8.83000710893375       -1.26665852424397       -2.36637599834689
C            6.05380780106370       -0.63968592782964       -0.25058089916777
C            4.76561775534757       -0.19692776037058       -0.16672341429867
H            0.38855210209389        1.73680693760332        1.04005594730016
H           -0.07939258671480        0.43664500125772       -0.04241705897517
H            0.49876811733152        1.96904940046202       -0.69604470111770
H            2.20032089474421        0.02592482386508        0.95914224471852
H            2.75803372293121        1.54485975314080        0.28407367848953
H            1.97839431759421       -0.25187513121610       -3.11470291001495
H            0.71912509750331        0.38619486872321       -2.12253390036291
H            1.76066497490633       -2.49617096498580       -1.94754506112159
H            0.22711470049309       -2.01664553995815       -2.67290414304762
H            0.49048816996203       -1.83563590645835       -0.93898745646827
H            3.60837073184133       -1.41016526687399       -3.11101789619649
H            5.90344161783837       -2.18577883984218       -3.25193544583961
H            5.66416496279528       -3.50858841143318       -0.08929809218623
H            6.15265872457088       -2.80119987153784        1.45453853243692
H            6.02547142522139       -4.55048627691265        1.28307227342567
H            8.50602287777400       -5.26501613673394        1.65508740085069
H           12.03571095432893       -4.35199902367409        0.09676431853053
H           12.47642128047396       -6.32705526413975        1.33445045976628
H           11.67162396403816       -7.97938019914842        2.95864649615541
H           10.14048603581978       -9.83756369593836        3.41825792825169
H            7.16039963140821      -10.70626474282363        0.32450072718374
H            6.20827191001946       -9.68019140584470        1.43033322056146
H            3.39817218863308      -12.46099340176473        3.50582993749805
H            4.95256136064481      -13.33736206406199        3.44637861586585
H            3.94392498099070      -13.21167985773278        1.97944898286610
H            7.64325827935145       -8.56585758228128        0.19277331312969
H            9.17588785288977       -6.74499182966574       -0.27469200167667
H           12.66460798684891       -2.02034989956117       -3.20961247545768
H           12.83851025537310       -0.27865398416761       -3.43368930434791
H           12.38228745936077       -1.30507481779862       -4.79912467016230
H           10.16397757042003        0.70137606215186       -4.66350422609518
H            7.75750211388282        1.55117658737945       -4.08341274835481
H            6.99090516870920        0.90296560169628       -2.63722693002745
H            6.78878316853689        0.08314887586414       -4.18939014203515
H            6.75288310502172       -0.42909815865973        0.54021249574286
H            4.45846663504110        0.35068976585376        0.70540256809774
