57
 energy: -10.404879591633 gnorm: 0.000704080839 xtb: 6.5.0 (97a52f5)
C            1.65471658463326       -0.20462585143781       -0.98519490891801
C            2.54445221965936        0.16579865114254        0.18518320337802
N            3.07142713150382       -1.01327079939231        0.91381988051956
C            2.05202487057387       -1.96673206023838        1.41382306674755
C            0.98439358720797       -1.31048634407312        2.26707687637988
C            4.42992839371671       -1.21981876161289        1.10147854858408
C            4.95352345127539       -2.51196973146423        1.33422972383594
C            6.29156504012890       -2.71437297964271        1.51021483735265
C            7.20241769734569       -1.64272252178480        1.47531023311973
C            8.65240779204830       -1.86311637602123        1.66388545087387
C            9.33905548536317       -1.39388021322015        2.81088155909032
C            8.87134373590144       -0.72821741566370        3.98077907685940
C            7.47674405529028       -0.34283330168562        4.30753728426348
C            9.97268933244902       -0.49971456282721        4.79349141697000
C           11.11942034074494       -1.02861843877731        4.17263087126562
C           12.50511477350765       -1.04141517286680        4.67954410538478
N           10.70662444458263       -1.55588851656856        3.01147808091996
B           11.63728819457108       -2.29706591864654        2.04228683071994
F           12.61979604861209       -1.42300878990224        1.59116111039653
F           12.18952105453405       -3.39749316205778        2.68795445418298
N           10.80286141921702       -2.77887427595307        0.84746524012819
C           11.32312553217784       -3.43322919668294       -0.20102107276577
C           12.73425416790510       -3.82929599447315       -0.36567781088911
C           10.26257028751357       -3.64000394097628       -1.10121049395127
C            9.10447999374645       -3.08846785084868       -0.57173014243541
C            7.78089782275464       -3.08125479517314       -1.24118333404596
C            9.43851412746053       -2.54560493368646        0.70276051001898
C            6.68652269781231       -0.35323754802983        1.25138554008793
C            5.35023520055685       -0.14760228784482        1.06700222080619
H            1.33387011858496        0.67337707883166       -1.55004881077058
H            0.75504921721700       -0.72633561430343       -0.65719898521094
H            2.17869086352813       -0.86795640676318       -1.67513853796100
H            2.02059521413944        0.80820500773522        0.90001691805505
H            3.38716658649485        0.75747146898727       -0.18179568707078
H            2.55499120410597       -2.73666533424865        2.00514127892569
H            1.61599461472644       -2.48773144101609        0.55552774245659
H            1.43379737240917       -0.76638908626561        3.09896377741086
H            0.28907895033241       -2.04036575739669        2.68726445215089
H            0.39539006812398       -0.59429959793527        1.69364469018549
H            4.29314817503343       -3.35974817887869        1.31986733579243
H            6.67300896779160       -3.70630371790829        1.68129114555060
H            6.77192872575573       -1.10503655602800        3.97494337358583
H            7.21081606895385        0.60058399581423        3.82997472294653
H            7.34808604799151       -0.22145321907519        5.38369800173875
H            9.95164138196633       -0.01410495147861        5.75403184637592
H           12.58799070564850       -0.49943279608337        5.62200304840159
H           13.17926735642848       -0.57871698243534        3.95836880825395
H           12.84271837166116       -2.06519339520344        4.84223438307534
H           13.31423389960869       -3.53770355281741        0.51028030675712
H           13.17463283063542       -3.34702753637687       -1.23861191016235
H           12.82478071134878       -4.90881747666408       -0.48794704656460
H           10.34296286222751       -4.13047789474349       -2.05616447415035
H            7.88796353659960       -3.21565365826974       -2.31800333441597
H            7.26327183866118       -2.13594840463525       -1.07729887268596
H            7.14902025786952       -3.88609703210579       -0.86521167386241
H            7.37249193478155        0.47578976589995        1.22413422776742
H            4.98742663457574        0.85655436377292        0.94479091454877
