50
 energy: -9.708452822475 gnorm: 0.000518481229 xtb: 6.5.0 (97a52f5)
C            2.52961898239331        0.31450460837063        0.59240888027516
C            2.39189568165480       -1.17888800229963        0.37831118077307
N            2.91481396386732       -1.61422455860518       -0.93217054870051
C            1.89624059951937       -1.98018038423673       -1.93604159219783
C            1.45776557017750       -0.79972274135625       -2.77682377179994
C            4.28894059350539       -1.60153937182035       -1.23192462055409
C            4.74965636161954       -1.80194195002118       -2.54084520475223
C            6.08786214720860       -1.79285911255729       -2.82523489113087
C            7.04837853827777       -1.58744164067367       -1.83005513410248
C            8.43673825658466       -1.59932439070861       -2.19651082225656
C            9.48295491157120       -1.44882997908685       -1.35838368030386
C           10.83949997153211       -1.48000188958266       -1.77555881616983
N           11.84320828064991       -1.36169114898604       -0.94849926519481
C           13.06653358426028       -1.42422115186192       -1.58831249545095
N           14.22331884175413       -1.32904025427531       -0.94164049524201
C           15.29913968172308       -1.40691380201196       -1.74310972063693
C           16.58687056904524       -1.32064911055071       -1.16486587681841
C           17.71389784918037       -1.38600171762036       -1.92603691158833
C           17.61946773695043       -1.54222640362860       -3.31092643480464
C           16.39893744481425       -1.63260050252963       -3.90914083458285
C           15.20399580621311       -1.57128786681650       -3.15806148867751
N           14.02272699172534       -1.66995574183581       -3.80040012690089
C           12.99203459954724       -1.59435260293733       -2.99267025700847
S           11.31403914874947       -1.68420684618839       -3.46058654241383
C            6.60819770717173       -1.37697524709616       -0.49244395419890
O            7.56370050086789       -1.16451413795690        0.50185751592115
C            7.05255449672902       -0.92855127146137        1.79503647233977
C            5.23971353283311       -1.39214971421050       -0.23593384514012
H            2.15781832943880        0.62450992482772        1.57108459202929
H            1.97491110305925        0.87124174038476       -0.16344513315042
H            3.56996291534190        0.63216069713718        0.51771075362313
H            1.34120201704214       -1.47730608459933        0.45321674615641
H            2.90667470092022       -1.74561495734225        1.16045249376089
H            1.04064988896716       -2.42615062730723       -1.41812562644536
H            2.29845159818929       -2.78590037023680       -2.55813085541442
H            0.98669254599606       -0.03366863715502       -2.16007419372110
H            0.74081061210851       -1.08889890955748       -3.54783471937198
H            2.30853643055880       -0.33145549787220       -3.27298662526164
H            4.04258047094386       -1.95229861582150       -3.33600893434988
H            6.41779936011316       -1.94780350298559       -3.83838125249678
H            8.65958329466992       -1.75060287957662       -3.23791545225736
H            9.30124264920240       -1.30127393039229       -0.31098110202428
H           16.65612848723633       -1.20139917909558       -0.09789579197788
H           18.68381149974726       -1.31767525949684       -1.46137050454343
H           18.51692439996532       -1.59120305819103       -3.90540656930578
H           16.32256890491044       -1.75286491368371       -4.97548832519901
H            7.89006303818344       -0.76133569674544        2.47358334394366
H            6.49116394821689       -1.79839528143799        2.13869652355115
H            6.42119435945372       -0.03897684238102        1.79021775926478
H            4.90128709560826       -1.25048118593229        0.77012615450587
