60
 energy: -12.261271184892 gnorm: 0.000537730340 xtb: 6.5.0 (97a52f5)
C            3.16063887686978        1.20083920554589        1.42268580199601
C            2.63600446340201        0.02875745283662        0.61983119013923
N            2.81181436563335        0.22640078182126       -0.83033538177649
C            1.62436005041982        0.72354826610717       -1.54913184887700
C            0.87557500934368       -0.38964759947785       -2.25125240722603
C            4.04711785728066       -0.01006039355897       -1.48223598028264
C            5.16021692242897       -0.47243468424817       -0.77847329312836
C            6.36176431867997       -0.67538498250486       -1.40960672187666
C            6.51286129331479       -0.41732342150059       -2.77088784559966
N            7.79589164065303       -0.56828647017857       -3.37784408681998
C            8.46979399832875        0.32484599718875       -4.23943467559659
C            9.30113891819070       -0.19642785193806       -5.20314839942281
C            9.94860691433545        0.64463930947712       -6.12810704558164
O           10.78596690572209        0.39569681477777       -7.17935029871132
C           11.07227963230571        1.64375562633183       -7.70000460570145
C           11.94834304791641        1.84405918955239       -8.84812522597355
C           12.53311814411671        0.75293327349118       -9.48395498754631
C           13.35921870680357        0.93510158553561      -10.56735954715278
C           13.62726024112442        2.21388034556013      -11.04933036728976
C           14.46780734987899        2.39915455360577      -12.15621915311245
N           15.16419635371433        2.55258827940599      -13.07338170560865
C           13.04139015042379        3.30484036245808      -10.41215329255066
C           12.21466683824950        3.12311850543538       -9.32932831468023
N           10.47545664759887        2.63607868379759       -7.05240040685493
C            9.76747548040869        2.04639395437789       -6.06987280707568
C            8.94000437054640        2.62713698119567       -5.05345300083026
C            8.77445659823682        4.01282596084465       -4.94799763977356
C            8.01415164923706        4.54740566261180       -3.94436728153088
C            7.40580447556605        3.71250539395939       -3.01295699287477
C            7.55248959923471        2.35424542852345       -3.10135785352574
C            8.30443365833988        1.76480307758993       -4.12851127648035
C            5.39384887146407        0.00846908930843       -3.50728868728038
C            5.48989982401027        0.24736996489689       -4.97191322169829
C            4.19545406926278        0.21424458873991       -2.85276197210449
H            3.04300295669063        1.04917000331505        2.49746672046175
H            2.63639077923640        2.11980236539772        1.15713797860809
H            4.21927758358587        1.37191673214820        1.22449246246502
H            1.57118169523428       -0.13162886556258        0.82016038398312
H            3.12305012271192       -0.90786586550601        0.90797585382657
H            1.93938564204056        1.50314754116148       -2.24961987674840
H            0.97383633807978        1.23378992589146       -0.83072725987838
H            1.51603277712746       -0.90413372935203       -2.96848329781859
H            0.00052992471207       -0.02110363481590       -2.79018686233014
H            0.53433301705519       -1.13971842481966       -1.53648515476252
H            5.08210431001008       -0.66391038098931        0.27611577414571
H            7.21758286756038       -1.01399369950730       -0.85230403248920
H            8.23335798504118       -1.47854442577575       -3.25561553012786
H            9.43529787342873       -1.25798304240155       -5.28336902772410
H           12.32525288821790       -0.23569407148010       -9.11234435291884
H           13.80825078263268        0.08802855991360      -11.05730007696156
H           13.24385036110984        4.29554937405741      -10.78195552619356
H           11.76014631469385        3.96681367989225       -8.84038700188836
H            9.26267911402629        4.64912870357801       -5.66502484500839
H            7.89296140822743        5.61555450718147       -3.86859905854838
H            6.81706241077918        4.13909319693784       -2.21750733596067
H            7.09085619386844        1.72356932947352       -2.36557901123406
H            6.27254096454811       -0.36717765980578       -5.41701155483922
H            5.72018923632081        1.29243402583555       -5.18095340243543
H            4.55315508246515        0.00126086089966       -5.47317765171788
H            3.35407412754581        0.55110206275367       -3.42823898150365
