51
 energy: -10.843370317507 gnorm: 0.000627048372 xtb: 6.5.0 (97a52f5)
C            1.07499234470869        0.13459863295624        0.38664327382426
C            0.32526010386904        0.96868864584967       -0.34776012638642
C           -1.12169580496828        0.99176810287903       -0.27752926983519
N           -1.71213487992985        0.14301217076751        0.55234827582703
C           -3.03560627811537        0.21954923688373        0.57107721462715
C           -3.75023704244381       -0.67610432757258        1.45795427347924
C           -3.13131710745416       -1.55987866567206        2.25376300250785
C           -3.78252073031577       -2.48154582586892        3.16993404697484
C           -3.00657756608238       -3.35089158840974        3.93826981744255
C           -3.59324183579781       -4.23510975906148        4.81648489233899
C           -4.96667020952101       -4.27218963945559        4.94863993644748
C           -5.75222367481719       -3.42091155682328        4.19810499300489
C           -5.16980930744352       -2.53502910568674        3.31831559793390
N           -3.76704635387297        1.05630245927377       -0.15305483704796
C           -3.06719806743212        1.85841723263035       -0.94423549729310
C           -3.81625984003295        2.79458859466189       -1.75813201336542
C           -3.22706452934777        3.65557500240299       -2.60009272174677
C           -3.90583058241318        4.62153814781128       -3.44765040904277
C           -3.15696395529866        5.42406832885047       -4.30976006502291
C           -3.76907905665520        6.34829284012900       -5.12710956789162
C           -5.14141486143991        6.49389151499796       -5.10182457008398
C           -5.90031068894102        5.71077805265241       -4.25565640260264
C           -5.29232589998685        4.78464039401574       -3.43671451865113
N           -1.74574724752449        1.87143622961543       -1.04944802263855
C            2.52665790311691        0.06223662647279        0.37554845324305
C            3.17369352169911       -0.89172700173300        1.16253791828620
C            4.54788049046099       -0.98503291758522        1.17469401508311
C            5.30741129152442       -0.12781879763934        0.40420143217061
C            4.68722301324764        0.82398829980016       -0.37979840788372
C            3.31299234163281        0.92021253752523       -0.39588724722608
H            0.56076918206678       -0.54213060679280        1.04487430853477
H            0.78948336337994        1.66046353875976       -1.02402584996914
H           -4.82082406934613       -0.60425573442431        1.45985725979295
H           -2.05750081132775       -1.59235822595209        2.21534600989792
H           -1.93496450178085       -3.32387109785201        3.83788552149906
H           -2.97872140556939       -4.89897319162597        5.40244771367555
H           -5.42510865524586       -4.96345150621021        5.63679329657287
H           -6.82472922465650       -3.44888634028521        4.30200686609775
H           -5.79435749604473       -1.87758139107820        2.74071053335450
H           -4.88502086465208        2.77508208202115       -1.66451689228982
H           -2.15404417995888        3.63107073826947       -2.65867357143019
H           -2.08641012366893        5.31199588761647       -4.33233798853391
H           -3.17541194827714        6.95859778363624       -5.78797520592181
H           -5.61958835247668        7.21672024075647       -5.74248393062954
H           -6.97190816913080        5.82520699804786       -4.23570247747881
H           -5.89504004614621        4.18288349364888       -2.78053121350902
H            2.58390520845015       -1.56134866242563        1.76500300045286
H            5.03116020115576       -1.72892067436368        1.78696010142132
H            6.38263411712075       -0.20087590151834        0.41480128874340
H            5.28053043950696        1.49367699772687       -0.98099000261980
H            2.84325184617614        1.66824170737947       -1.00891223413278
