32
 energy: -5.547823920674 gnorm: 0.002159319754 xtb: 6.5.0 (97a52f5)
C            1.99144160543190        0.13905765629576        1.13125653513641
C            1.91824864647694       -0.59849348722270       -0.18926717832772
N            2.67672699403606        0.08580467575351       -1.25190559763093
C            1.89421291961996        0.99450193184109       -2.10752784882517
C            1.46359960614262        0.33178889335707       -3.39895882508263
C            4.07956697913710       -0.08099161296572       -1.40762457881690
C            4.77572433095100        0.52975686936019       -2.45473146104256
C            6.13086631499355        0.36848769687614       -2.60355821765332
C            6.87139592104801       -0.41453038243183       -1.71416050318343
O            8.25185356849033       -0.62890495010192       -1.81044484793478
C            8.87220196951457       -0.01138082765707       -2.91436786387763
C            6.17956960779096       -1.03005157874027       -0.64948888206222
C            6.88920529037525       -1.85208729447284        0.31180232048016
O            6.39263540193304       -2.45729329811740        1.22841713524075
C            4.81076657570778       -0.85731435793362       -0.51954325526944
H            1.43782746936894       -0.37430286344699        1.91990384261028
H            1.58229205162733        1.14544203158925        1.03750332918264
H            3.02329489146720        0.24585128233465        1.46598747625360
H            0.87898335276992       -0.69852326563012       -0.51898103312149
H            2.28964066127600       -1.62378549975243       -0.09966944484266
H            2.48641720571426        1.89523739737461       -2.29729494595120
H            1.02455357867050        1.33972746675981       -1.53944972257803
H            2.32517486340219       -0.01625214972786       -3.96947233584197
H            0.89141057101481        1.00831358207753       -4.03663844980269
H            0.84173771568992       -0.54212462036355       -3.19881894157517
H            4.23935764518311        1.13549744886308       -3.16208872124580
H            6.62919044569263        0.85531277111714       -3.42174407012979
H            8.44029190684657       -0.38502435136511       -3.84369491364616
H            9.93537411639389       -0.25490090547273       -2.89659466389393
H            8.75714022804175        1.07110090766821       -2.84470203615845
H            7.96142144745647       -1.93423348663767        0.19912929445804
H            4.32253611772062       -1.33997567922945        0.30521840513101
