118
 energy: -23.246738745159 gnorm: 0.000577448770 xtb: 6.5.0 (97a52f5)
C            3.31948924175651        3.44656976196412       -2.90876734572643
C            3.35816191058657        4.75990029091584       -2.15625156481197
N            3.35351386747826        4.56172457577243       -0.69240942113798
C            2.04512355723249        4.50210704619162        0.00313303481683
C            0.86288535229041        5.10091509617084       -0.73535011416353
C            4.52330301207954        4.14590978927644       -0.02177201690758
C            4.47971875041706        3.71871087151485        1.31177346693107
C            5.61168887796812        3.29701353697785        1.96084483469067
C            6.84415189669811        3.27747541424431        1.31469455904979
N            8.02326976270830        2.80429441127257        1.97670606607750
C            9.16086820387431        3.46190008565558        1.93624291617231
C           10.36347348055801        2.97756666295841        2.51939029437735
C           11.50735410515959        3.79708250014843        2.62039602647251
C           12.66214172111668        3.33005873048350        3.17033352692782
C           12.75188708888452        2.00758515576384        3.64700948660672
C           13.95403289203062        1.51813741323564        4.23461156667534
C           14.00855778896335        0.19884749488155        4.70462149791520
C           12.87140868718678       -0.62782016664587        4.58353110472355
C           11.72153350653315       -0.16696193371633        4.01739335416108
C           11.62994278781850        1.15535596439742        3.54042261287485
C           10.42041334181305        1.65065061145358        2.97222606051852
O            9.33091838213483        0.83556278309118        2.86561990580595
B            7.97548262779492        1.47741554008055        2.76972979995325
C            7.49676152495177        1.76254796461807        4.28068630315437
C            7.28132528839097        0.69194213483029        5.11668501627336
C            6.91986420617573        0.90310990203876        6.43185666101653
C            6.78633864974480        2.19118635263097        6.91091804438726
C            7.02312975006251        3.26496566166295        6.07597467837501
C            7.38411868146349        3.04561847600844        4.76248179068666
C            6.98967858418386        0.46550595972405        1.99342792704344
C            5.71698927808384        0.13624581128341        2.40215642670210
C            4.92935954023909       -0.68162947023442        1.61809862786446
C            5.41898613837433       -1.16961395194947        0.42304167604183
C            6.69566971430947       -0.83871536429274        0.01481189043288
C            7.47744334028159       -0.01869398653933        0.80309412941068
C           15.18888161609927       -0.26201387167449        5.34883145729108
N           16.30533558242633        0.43040051697383        5.42942037455802
C           17.45135644581046       -0.09867245816989        6.11543660010059
C           18.12710392515201        0.63821532444280        7.08426326760048
C           19.22702772245727        0.12775911696405        7.72440439238619
C           19.70493985832847       -1.15475999907916        7.43193117737828
N           20.84922790302703       -1.66980004250750        8.07000908327071
C           21.57705678276002       -0.92073480482843        9.11122446836075
C           22.53861598107635        0.09159582989692        8.52428635091494
C           21.42811028207675       -2.98006742511428        7.71931374688997
C           20.75334985867493       -4.12063062150765        8.45186279714268
C           19.00488632926593       -1.90244394443392        6.47741911253453
C           17.90335989191317       -1.38827864031925        5.84087974516280
B           16.39469384958579        1.71899168520333        4.56829263813901
C           17.00822222192010        1.33590128064517        3.12567978210790
C           18.05239848347124        0.45126472947013        2.98651652573758
C           18.57363429484939        0.18185337333037        1.73794143156873
C           18.04379465365021        0.80081020345553        0.62349216083010
C           16.99467466825843        1.68731248433852        0.76226178103579
C           16.48147194831337        1.95295824528678        2.01566555890392
C           17.30694204693404        2.83505693241833        5.28484910210127
C           18.63825885233065        3.03552656678556        4.99773649263647
C           19.36158797307597        3.97951501011393        5.69744483428290
C           18.74784093320342        4.72467529432374        6.68463609022421
C           17.41103298095497        4.52667925877698        6.96744803083731
C           16.69322958540486        3.58094851491117        6.26368294071079
O           15.03901135889874        2.33364422691331        4.34847037576594
C            6.90071189248622        3.70615626314230       -0.00860203343661
C            5.76975940366156        4.12779140135041       -0.66180072979251
H            3.31770355681477        3.59174214926406       -3.99127051326454
H            2.42825927191982        2.87391953023343       -2.64783609084103
H            4.18001568019665        2.82416405095702       -2.65883208998754
H            2.51465163426431        5.39523525410868       -2.43936710811088
H            4.23933719808973        5.34925948409696       -2.42752631054090
H            2.16562104015329        5.01451719539839        0.96352837839332
H            1.84921666188301        3.45053592735615        0.23920160867343
H            1.03699784080364        6.15086134789245       -0.97622954271982
H           -0.05200793539505        5.05395975545700       -0.14026933459035
H            0.66339929011277        4.57297962122407       -1.66903996972074
H            3.54179124168371        3.70546866684830        1.83670709305966
H            5.55765172011095        2.97125514893517        2.98358470140280
H            9.17013307874213        4.42220150627329        1.45510576901479
H           11.45223921398437        4.80976917586263        2.25941264275151
H           13.52610621032340        3.96608571157492        3.25400797339507
H           12.92337913192078       -1.63728137751543        4.95390608940916
H           10.85806392671896       -0.80347177660209        3.93241006603215
H            7.40697837666894       -0.30641198769444        4.73414921466686
H            6.74542084431610        0.06305198989389        7.08422135713984
H            6.50428299363939        2.35831024527653        7.93769895182690
H            6.93029560906069        4.27175251230371        6.44932925536266
H            7.58845177156745        3.87174073998631        4.10513702909740
H            5.33904615377514        0.52959535516615        3.32946331025962
H            3.93152740346815       -0.93538571083595        1.93695807491213
H            4.80446405673642       -1.80726257521727       -0.19142483539665
H            7.08038429331982       -1.21662976837272       -0.91832528099145
H            8.47215932585916        0.25708665501190        0.49796513016156
H           15.16433066186609       -1.22436396158527        5.82575512918989
H           17.77578484746003        1.62445012882842        7.32506432279997
H           19.73397100652436        0.72947306419785        8.45669560651656
H           22.10990887112753       -1.63862555717800        9.74437458980991
H           20.84780928134242       -0.44503297194156        9.77474533774617
H           23.28511983762175       -0.39804392309461        7.89704142366628
H           23.06972005168278        0.65140429422142        9.29711100552620
H           22.01727574730403        0.81168889224590        7.89218154227161
H           22.49976508306131       -2.95525072549235        7.94538631802899
H           21.37090985630741       -3.10961261692916        6.63385505116276
H           20.85100077482958       -4.00178107322703        9.53205359346443
H           21.17849834195517       -5.09033738955435        8.18416170953767
H           19.68552378424955       -4.15457834094228        8.23179524507158
H           19.33150581908249       -2.89871584166159        6.24061232170552
H           17.38037883314019       -1.97409659127029        5.10482985918523
H           18.45805493985179       -0.02548380507463        3.85956423166131
H           19.39261323256227       -0.51104867898454        1.63347335329459
H           18.44824745043737        0.59179720091015       -0.35349717618587
H           16.57701111411423        2.17144904904522       -0.10539191244554
H           15.66193314511721        2.63853910651537        2.14105683224246
H           19.10956480850507        2.44546396696024        4.23211464577824
H           20.40537570863167        4.13157293514664        5.47598704163488
H           19.31182863169082        5.46094591491075        7.23379133374397
H           16.92892017908450        5.10772810631992        7.73658251717351
H           15.65055864840597        3.41143693685622        6.47017891441636
H            7.84741954119728        3.68266167243604       -0.51973796677167
H            5.84830734637312        4.44208580331697       -1.68628081851829
