106
 energy: -21.619101369417 gnorm: 0.000804330985 xtb: 6.5.0 (97a52f5)
C            2.87903304657118        0.55134464990343        1.41096200089562
C            3.35916094264905       -0.12815622893530        2.67526394912027
N            3.76971235334918       -1.52579768229681        2.43186413787015
C            2.75707769435547       -2.59667766936316        2.59357166896087
C            1.52641969131052       -2.24264047206120        3.40692194285318
C            5.00089742830511       -1.81336099228941        1.80875062768488
C            5.29246814368762       -3.10251457021026        1.34423633171975
C            6.48323896304648       -3.38272042935517        0.72535342779083
C            7.44427476108026       -2.39386895737769        0.54008455213278
N            8.67631949302531       -2.67368401189715       -0.13371125366185
C            9.84084343201873       -2.29592531897874        0.34403130478999
C           11.06485383495938       -2.49024802701947       -0.35300990427822
C           12.30817815580756       -2.27183853664816        0.27457830353818
C           13.47758710753001       -2.44374006041793       -0.40175352439392
C           13.47848917731926       -2.83213123484321       -1.75497649039778
C           14.70058309045115       -3.03851411354977       -2.45905981755124
C           14.66822073331187       -3.41677337274499       -3.80790188219285
C           13.42374879536556       -3.59444499681645       -4.44859117774296
C           12.25331387916800       -3.41528871456274       -3.77572714145871
C           12.24978662317448       -3.03472333283025       -2.41967340545957
C           11.02812349810818       -2.86932104256999       -1.70458687397783
O            9.83445611115552       -3.07406637036476       -2.33112800294522
B            8.67266725396017       -3.46077741860959       -1.46327018185381
C            8.82706228061169       -5.03398547710684       -1.15924244021577
C            8.86317390936754       -5.89658773896850       -2.22914313528754
C            9.04737464885391       -7.24820790745261       -2.02157695222864
C            9.20486681355689       -7.73209244189367       -0.73838737864178
C            9.18558088365687       -6.86261771982567        0.33340876575927
C            9.00138069408953       -5.51265361659854        0.11782019550066
C            7.31287234022094       -3.12538616732006       -2.25722572827175
C            7.20648525730493       -1.82958932516307       -2.70225485667578
C            6.05768692214807       -1.40837829974603       -3.34004095971111
C            5.01456648795673       -2.29194668914883       -3.53053048450847
C            5.12338621908672       -3.59364786069676       -3.08458285172254
C            6.27441884702396       -4.00846062465679       -2.44732815283297
C           15.89053965958163       -3.58556241476552       -4.51098113959561
N           17.08028699133684       -3.52833105948837       -3.95335835617523
C           18.26479196018268       -3.75831631966360       -4.73362483009781
C           18.35457414028407       -4.88948126422861       -5.54221091121013
C           19.48081684152196       -5.12881553027752       -6.29282775930799
C           20.54251304981597       -4.24249762752356       -6.26331308937942
N           21.74154376819734       -4.49953134946997       -7.06059479169035
O           21.78830153253521       -5.53223504937429       -7.75302540203893
O           22.67452349437014       -3.67724077689847       -7.01824742267508
C           20.45893744208518       -3.10976179327316       -5.47378507821195
C           19.33475515124379       -2.86816835667136       -4.72179561372895
B           17.14894575382711       -3.43902673213072       -2.40692238133711
C           17.34789618436319       -4.92817772120312       -1.81928914900371
C           18.30413465069271       -5.78776631366028       -2.30876799855439
C           18.45692036876232       -7.04348578039520       -1.75895406227543
C           17.64565695947863       -7.44050844146581       -0.71538703593848
C           16.68391788095078       -6.58033460330638       -0.22570238942490
C           16.53927833515284       -5.32539202146623       -0.78076053964512
C           18.34290398874271       -2.46627418863566       -1.93981681618092
C           19.53780946834824       -2.88862461646692       -1.40318705248120
C           20.50660792235285       -1.96694204449909       -1.06395633165933
C           20.27562620170987       -0.62040810582516       -1.26135793298011
C           19.07364804987785       -0.19797220220829       -1.79212081446678
C           18.10789004516834       -1.12460593335210       -2.12765605305190
O           15.88755841173365       -2.86890024132014       -1.81996888289507
C            7.16800515229493       -1.11026701269445        1.00165275820310
C            5.97556572941611       -0.82510094849496        1.61738479796367
H            2.58174505224944        1.58660960134806        1.58786415741601
H            2.02177565093921        0.02620810056841        0.98816501856771
H            3.65689839464369        0.55445497764796        0.64653665750958
H            2.58473297226961       -0.10534204874172        3.44635909263541
H            4.19904963664302        0.41058087332843        3.12423522683477
H            3.26245849666029       -3.44985273671617        3.05832181365786
H            2.46486529836046       -2.92208611840991        1.58959390756696
H            1.79666494836503       -1.92125480671674        4.41371927082838
H            0.85182126820514       -3.09499375909495        3.51232186540101
H            0.95485362146057       -1.43959981262794        2.93974133022734
H            4.56649477892434       -3.88664855014455        1.45873244943637
H            6.68685878617049       -4.37636215143037        0.36992947507857
H            9.86292410095038       -1.83678828538606        1.31479817459506
H           12.32115177712451       -1.97135518462209        1.30806439624881
H           14.42295094888270       -2.28153736522483        0.08598466976090
H           13.41171837370684       -3.88172594695067       -5.48576402867020
H           11.30826258154068       -3.56196806510254       -4.26886672929329
H            8.75737958415010       -5.50121279386072       -3.22469254486765
H            9.07216404383830       -7.92373001775510       -2.86077160317301
H            9.35008363897404       -8.78721589630887       -0.57398757841636
H            9.31889846831973       -7.23618857934931        1.33536647788021
H            9.00636175459289       -4.82081958622049        0.94080706984899
H            8.02835853118978       -1.15427959395860       -2.53794248906794
H            5.97473980725557       -0.39109659576391       -3.68559519486507
H            4.11537493958683       -1.96566602492165       -4.02688314544422
H            4.30969468122101       -4.28483742162159       -3.23117151264115
H            6.36421451834180       -5.01842812515345       -2.08807015866672
H           15.84622099327366       -3.77084218940977       -5.56818883688117
H           17.53370818540305       -5.58492839322163       -5.55708746611440
H           19.55356676299528       -6.00700473044966       -6.91085191005357
H           21.28823672452338       -2.42375851822224       -5.45908729480927
H           19.27232021770926       -1.98306377033251       -4.11688098785103
H           18.93179397753741       -5.47133582396940       -3.12181021827439
H           19.20769592501826       -7.71335682350956       -2.14489308238875
H           17.76252499606149       -8.42139465295383       -0.28460112749087
H           16.04676962083453       -6.88734722646142        0.58731992336473
H           15.79122480472691       -4.64461133413097       -0.41475671360501
H           19.70951597434889       -3.93930523594157       -1.25298606476609
H           21.44335331651392       -2.29832989362569       -0.64691384509997
H           21.03230349858667        0.10052765628690       -0.99849122216369
H           18.88914410369864        0.85291255674432       -1.94324832525429
H           17.16228329853352       -0.81518686665966       -2.53819118186916
H            7.90019057556018       -0.33691362304797        0.84822872656441
H            5.79077172238765        0.17894600332149        1.95195322357534
