68
 energy: -12.610374463950 gnorm: 0.000691970628 xtb: 6.5.0 (97a52f5)
C            1.19417954651196        0.61400533808766       -0.89723640558689
C            2.33254793441183        0.16173116801408       -0.00365953651619
N            2.87935262395559       -1.16753818212578       -0.35175170624130
C            1.90913857265198       -2.26292583074106       -0.57111099073537
C            1.16906720307967       -2.64049299660459        0.69502278361139
C            4.26349983507815       -1.43295322047161       -0.22176550876205
C            5.06142611696378       -0.70160038922084        0.67274962132951
C            6.39941016462838       -0.95896664557657        0.79854861527340
C            7.02358317593530       -1.96120724515241        0.04048122718819
C            8.42154386483138       -2.22585110193255        0.14932805387516
C            9.25669427182710       -1.49309707871522        1.13240018226219
C            9.07675804287922       -1.75159413635229        2.50558138503433
C            9.83503275146929       -1.11276280567888        3.45604624790694
C           10.78667705924503       -0.19550014523319        3.07208344818482
S           11.77927821346360        0.63505441328276        4.31256996491410
O           10.87676106423495        1.58539768779340        5.03625885650259
O           12.41787091671382       -0.43926422368193        5.13724948481935
O           12.85084709166750        1.48003968972310        3.48994898870956
C           10.97524672811773        0.08790029325272        1.73654199068867
C           10.22919253825827       -0.53681660708175        0.77103932761359
S           10.58271096872289       -0.03790486242151       -0.93287623889759
O           11.14311319073802        1.33830479945549       -0.80685043990871
O           11.58355304664078       -1.04142525258761       -1.39026462370429
O            9.28386385640772       -0.06602008993763       -1.65931868956796
C            8.97176291221257       -3.25556888822756       -0.67163874140617
C           10.32909290278056       -3.60630739885363       -0.61018678524513
C           10.84355204922401       -4.59970522584259       -1.39695593863149
C           10.02305541900560       -5.31380791267620       -2.28439121706491
N           10.56074516410144       -6.35040550021507       -3.10477496210981
C           10.21775917176599       -7.77272982050328       -2.87132684093779
C            8.78734821871474       -8.11781447825159       -3.22586030817748
C           11.79782637181145       -6.11657624651320       -3.87850343991985
C           11.57074888316805       -6.26705365346825       -5.36794156312487
C            8.67269954280384       -4.97510342249459       -2.34819917175147
C            8.12718823609833       -3.96885539471067       -1.56299975298622
O            6.77214250514444       -3.70129315006897       -1.67620793351830
C            6.23571805543613       -2.70507370167474       -0.87603601153975
C            4.87983281340281       -2.42564239149004       -0.98241629262803
H            0.88148001986749        1.63532657100357       -0.67152742360402
H            0.31695122899617       -0.02344800251743       -0.78487268982158
H            1.48964581275767        0.58292366443283       -1.94663005444750
H            2.02736007484554        0.14097328541845        1.04709216031920
H            3.15299246134090        0.88332516902920       -0.07067648561639
H            2.44207830036374       -3.13273785252450       -0.96308568652678
H            1.21856008801327       -1.96348978101898       -1.36481830493503
H            1.86894563174534       -2.93160962853152        1.47940737303772
H            0.48209124052671       -3.47367144341142        0.53482637471455
H            0.58603514653046       -1.80299896965022        1.07877971377121
H            4.60478991054772        0.05132536597100        1.29034545351900
H            6.99296132590161       -0.38279759799451        1.48572611974614
H            8.33854581702164       -2.47676859953692        2.80170349332075
H            9.69684596128016       -1.32524526558372        4.50347100165103
H           12.99241803886712        2.34164497214514        3.90491514576337
H           11.71434737922820        0.82002516567607        1.45033252420074
H           10.97546356356671       -3.06454722043247        0.05726257013582
H           11.88577971200199       -4.85809595369618       -1.33003670043760
H           10.42436449057322       -7.99394588746102       -1.81890215997128
H           10.91144733310949       -8.39120361571677       -3.44990659017321
H            8.08212929752388       -7.61578832688030       -2.56315137924921
H            8.59560898680323       -9.18988178977580       -3.14743152531304
H            8.55528415812646       -7.81270375202043       -4.24690035041065
H           12.57058113206869       -6.80394376295791       -3.51884667550589
H           12.15738746309938       -5.10818028685375       -3.64990902179996
H           11.23059308745922       -7.27310209902254       -5.61510754369052
H           12.47809666428350       -6.07228118303593       -5.94331705614374
H           10.80129803706287       -5.57455068666337       -5.71274786529946
H            8.03291543847777       -5.47452538078934       -3.04987918733778
H            4.31566117388347       -2.97247249869687       -1.71303230884506
