67
 energy: -13.740745405697 gnorm: 0.000891621941 xtb: 6.5.0 (97a52f5)
C            1.67187473264178       -0.68941180499200        0.38948400915578
C            2.16841175791634        0.66438797852768       -0.07103753939522
N            2.84025444543617        1.41406575119066        1.01273120636080
C            1.99662180329777        1.87580653107341        2.13541825191116
C            0.69735661028992        2.52922166035035        1.70752359483692
C            4.25095086586058        1.40981337661822        1.13390739815164
C            5.07989536664935        1.44502423588023        0.00084941230691
C            6.44312505320797        1.44970275684149        0.12384041784203
C            7.06354674063422        1.42201995575487        1.38290222845902
C            8.48436006685771        1.42223355345543        1.52094213511560
C            9.35828364557857        1.53645617953548        0.32871372929493
C            9.33584107998706        2.73317012484115       -0.41499043927817
C           10.13289334724656        2.90169094828311       -1.52107395755509
C           10.97162800042508        1.88752017681281       -1.92556049296615
S           12.01967127276411        2.10367784974345       -3.37975728942143
O           11.12034319114271        1.76009629179364       -4.52021124618726
O           12.43480344649450        3.53671473269197       -3.34061171603272
O           13.14837261303367        1.14678219409629       -3.18466611849026
C           11.00490906138304        0.70059127870345       -1.22425102318008
C           10.21585040035511        0.50819491462154       -0.11968673971410
S           10.37318347391940       -1.12296737991013        0.65317671777617
O           10.71134233082760       -2.04003872552813       -0.47954639865018
O           11.49569253531574       -0.94903097611160        1.62255447643392
O            9.05512227424132       -1.45098756328957        1.27095430660262
C            9.02681894590137        1.38985219301525        2.84117167761502
C           10.40964923983189        1.45384468168251        3.07530503932153
C           10.91848535868032        1.43103350785008        4.34515820437708
C           10.06930708821981        1.34204147693590        5.45988729099779
N           10.60069231250943        1.31908733384874        6.78556433027565
C           10.56877446202534        0.09136707513390        7.61227531826405
C            9.17064646270589       -0.39681371832601        7.91923119059194
C           11.58503644483652        2.33693262056464        7.20749889045891
C           11.02964987278894        3.23962267521618        8.28800382697289
C            8.69379796010313        1.29928571296270        5.23680930418700
C            8.15211097055387        1.33035355130173        3.95858044192858
O            6.77118368267101        1.31820498453642        3.82180152280047
C            6.24292053742097        1.37273681832333        2.53972521645708
C            4.86232486146219        1.37427123660645        2.38709067246463
H            1.20518618159453       -1.25372299899339       -0.42049995849006
H            0.93591159158267       -0.59092287375155        1.18781708745042
H            2.49318333708601       -1.28964441428342        0.78310286523456
H            1.35232693669713        1.27610058847873       -0.46643771900754
H            2.86600396305413        0.54325286979244       -0.90347924777640
H            2.58794972333144        2.59084322436780        2.71714865475165
H            1.81103403377699        1.02341058525368        2.79660535195196
H            0.88373021424349        3.34109181512487        1.00320138477523
H            0.15221180157369        2.94698170613528        2.55659505989806
H            0.03212536875584        1.81790118995992        1.21677779331561
H            4.63652606521447        1.51164663644909       -0.97649545299353
H            7.05901580281857        1.47355980147154       -0.75751682509766
H            8.68706685524911        3.52876781704572       -0.09115969996708
H           10.11367539970774        3.82451102841046       -2.07702500937406
H           11.65664088177583       -0.09163723564838       -1.55793583091295
H           11.07659930870056        1.50231422313115        2.23295887313771
H           11.98268661421247        1.45006737015648        4.50328537854485
H           11.11410115326890        0.28915804216503        8.54105154870201
H           11.14317486522509       -0.67730964379024        7.08465523397604
H            8.57920978194760        0.38791845546581        8.39220271056564
H            9.17734619108437       -1.25754696267166        8.59089313089613
H            8.64850388901783       -0.69895599370773        7.01079165808909
H           11.87079259050519        2.92458388848330        6.32908576133578
H           12.49598720468748        1.82839123552053        7.53967803691488
H           10.12714590113896        3.74610556577423        7.94313820393273
H           11.74558590495693        4.00479021709250        8.59419227175993
H           10.75548627464287        2.66794553753877        9.17548994204679
H            8.02327773161697        1.28407133028000        6.07462563257757
H            4.26136211731068        1.31210280409005        3.27410531368464
