73
 energy: -12.604298966085 gnorm: 0.000666162916 xtb: 6.5.0 (97a52f5)
C            2.10665035865570       -0.43032738634867        1.09815321910300
C            2.41331400934305        0.55035702597387       -0.01378068315667
N            3.12008773842190        1.75225553793385        0.48214518219858
C            2.33049128846739        2.69721477144651        1.30302334875246
C            0.93043852591432        2.96678519952341        0.78664518182545
C            4.52531706281677        1.84211784010244        0.44999248375796
C            5.28269242234768        1.21991566645975       -0.56984844133744
C            6.63882143877419        1.31571714864391       -0.59686557883157
C            7.34375347240247        2.03978660852728        0.38528094590712
C            8.75961303692772        2.16318798467959        0.37957185976273
C            9.56125365675655        1.52917870349981       -0.69739068654897
C           10.42229157436419        0.47558859279204       -0.38948730105063
C           11.16327904392445       -0.14768850561833       -1.36501997776166
C           11.05731425662664        0.26057898088596       -2.67853135332406
C           10.21033556936016        1.29252543859504       -3.01019312262242
C            9.46311009181085        1.94167714527597       -2.04110152807410
C            8.55097718916925        3.04508919917118       -2.46742253907067
O            7.77987965890640        2.84033137642674       -3.38765242074030
O            8.64679774654050        4.23440449944335       -1.80972622202123
C            9.37412208782122        2.87410729163818        1.40199907456908
C            8.58183454017243        3.46118615709776        2.41260008069551
O            7.22520215415620        3.36544899006717        2.42670116352273
C            6.60793997477225        2.66078775466677        1.41813695383310
C            5.21621728860289        2.55133932057513        1.42158731129081
C            9.18047170361542        4.21792388844504        3.49813684370612
C            8.34914298474412        4.75648009926097        4.42351218769334
C            8.69791162900071        5.60460635232929        5.55873861279204
C            9.57416286477755        6.69142993594149        5.44164353932692
C            9.85820670211856        7.48988689990123        6.51722600202351
C            9.27283976853303        7.25658617380403        7.76907443565675
N            9.56367727672946        8.07156576661340        8.86711446322373
C           10.54160991493839        9.15707578249610        8.78179700936596
C            8.89488836084554        7.89105102273409       10.15632006050416
C            8.37508494184119        6.18609982192477        7.87800638025519
C            8.09026535838322        5.38914144350745        6.80201200503095
C           10.67604700091589        4.28415093829702        3.60689461958293
C           11.35276202017499        4.24190055274759        2.22980668487939
C           10.87244803891127        3.02552252758587        1.42243285741728
H            1.60763942918275       -1.32777035790424        0.72787617207419
H            1.46119458176852        0.01833153091312        1.85357610346368
H            3.02209547437643       -0.74197101599055        1.60234562742623
H            1.50207708828489        0.86688752598166       -0.52920089760496
H            3.02000804999378        0.06787960284041       -0.78318166137480
H            2.88552145726921        3.64010006191481        1.34016134201247
H            2.30390253780191        2.31432513448779        2.32808838478201
H            0.95625226815118        3.29289218943009       -0.25375346356117
H            0.42828154502366        3.74546279040621        1.36402948503953
H            0.30382228470735        2.07615004329949        0.83753070571050
H            4.77732254389048        0.70447074959617       -1.36549467194763
H            7.19270783789808        0.84812293813076       -1.39148543842564
H           10.48620354857487        0.14054678927230        0.63129556373203
H           11.82254060883537       -0.95914429421331       -1.10456890545856
H           11.63468085510553       -0.23093872282236       -3.44426609597421
H           10.11268245842638        1.60868654397792       -4.03474157841356
H            9.33540374657314        4.19398827901206       -1.11654537632997
H            4.68688350757427        3.00887159971493        2.23435487786263
H            7.30488688684033        4.51260855668685        4.31573089464677
H            9.98276319792286        6.93295067986898        4.47606360578174
H           10.52594063635246        8.32351908934552        6.39539602317407
H           11.48787091443974        8.77658801638230        8.40372730195995
H           10.72334204416544        9.59790067949720        9.75902470400122
H           10.17485753150768        9.93522696421374        8.11604140888442
H            7.81589616250414        7.92842730593927       10.02363363935273
H            9.17507755570097        8.67466150127878       10.85615867866395
H            9.17175761623521        6.93120227812174       10.58672093464394
H            7.90559930849562        5.98562280381084        8.82404019793204
H            7.39862886228472        4.57082756823865        6.90460848681743
H           11.01539371547753        3.43259335066987        4.20803909138614
H           10.98895065333343        5.17197114799458        4.16364279185894
H           12.44615972467713        4.23181946108046        2.33489796396245
H           11.11636095294615        5.16128933577530        1.68148908438801
H           11.30975685082316        2.11367729219200        1.84386711860723
H           11.24548481026119        3.08409603380337        0.39303524877758
