70
 energy: -11.894167613522 gnorm: 0.000434953144 xtb: 6.5.0 (97a52f5)
C            2.69081638869140       -0.68628841898621        0.78471540663612
C            2.41882787186338        0.62493880753142        0.07881880673878
N            3.09635051255582        1.75932244060401        0.74085306114080
C            2.30502640137294        2.58218007810918        1.68575072161943
C            0.85952637663261        2.82376282598452        1.29082107470825
C            4.49609059522225        1.88463989709226        0.68478035245215
C            5.24770279027345        1.24775809771664       -0.32732080354127
C            6.60169958858231        1.37280735311111       -0.38661070093822
C            7.30836024112891        2.14166724073959        0.55581921961021
C            8.72394181390047        2.29673629307575        0.51497354695284
C            9.51683707973346        1.64826607511230       -0.55937967245292
C           10.42167284736677        0.63605548219398       -0.23623842285040
C           11.15349016721177       -0.00320887272092       -1.20797645489129
C           10.99486150089070        0.34556336689947       -2.53350183744350
C           10.10535479757496        1.33569812101337       -2.88033537168490
C            9.36667838055842        2.00132411784963       -1.91572324122809
C            8.40751012624239        3.05664171890634       -2.35856022472154
O            7.61388632877303        2.78946963031558       -3.24286977897573
O            8.48616600963258        4.27583205116930       -1.75541788255238
C            9.34103796027468        3.04292969842347        1.50798093514263
C            8.56098926155832        3.63787012862379        2.52507528818882
O            7.20332444991680        3.50567443253043        2.57328339757256
C            6.58023582688566        2.76754716378510        1.59094250675700
C            5.19225252873084        2.62807868550315        1.62764279210091
C            9.16411542559051        4.41844395791660        3.57802458421982
C            8.33192403888625        4.87201926368617        4.55965214292909
C            8.62896849868840        5.59875038803001        5.74049237745336
C            9.84168088826028        5.91227726625143        6.32069632604242
C            9.73647504084690        6.65226023231407        7.50309794650305
C            8.43799103585517        6.93400686221143        7.88412369159680
N            8.06108590259751        7.64442430315969        9.00322990746416
C            6.65485028003909        7.87233664926979        9.32698187376611
C            9.04332599701291        8.15863187182984        9.95640545829803
S            7.33575220837160        6.24581514285066        6.72950356934057
C           10.62932866864537        4.74274409716850        3.54162796488365
C           11.26240308063667        4.55067440507125        2.15379101922972
C           10.83276531982014        3.22027341055000        1.52006664248938
H            2.20217462470842       -1.52829027198881        0.29093027353767
H            2.33687982999537       -0.65232618756291        1.81574117862975
H            3.76028677730126       -0.89660197822589        0.82212949037772
H            1.34500678139813        0.81830499321657        0.03117307551210
H            2.73814848827674        0.59009632139386       -0.96664217280285
H            2.81006722714872        3.54937499686449        1.77090773367063
H            2.36632043402852        2.11189546859301        2.67222600856569
H            0.79213496030363        3.18723999232807        0.26466894858653
H            0.38375679144599        3.56675330798253        1.93413348123056
H            0.26071202438834        1.91562521095734        1.36402043545067
H            4.74283121336844        0.66975708467937       -1.07889064741982
H            7.14927289789270        0.88768506018564       -1.17505229464513
H           10.52783355540199        0.34648271436031        0.79488033771683
H           11.84683971537109       -0.78175634871736       -0.93575265680371
H           11.56415124814359       -0.15983013447496       -3.29628074603138
H            9.96711755435840        1.60521579891214       -3.91355402858716
H            9.19961131255534        4.28774478521349       -1.08696464584338
H            4.67482896089003        3.09293619140967        2.44359750328818
H            7.28850012820691        4.64278204664432        4.42080579781197
H           10.79316700659883        5.59034669715876        5.93280194728352
H           10.59409388070387        6.97361809113391        8.07222238259400
H            6.02718891795724        7.64028816403996        8.46986014421871
H            6.49623766874142        8.91368328059320        9.59857298888306
H            6.35974965797529        7.23684192049706       10.15900180300370
H            9.66635784578305        7.34571613543636       10.32242100276336
H            8.54683521068528        8.62130629507635       10.80638846717230
H            9.67299920287231        8.90282345504063        9.47396106328671
H           11.14923978863261        4.11449810715923        4.27334991214957
H           10.76907636979713        5.78176271408942        3.86199443787214
H           12.35748746905990        4.60904878472868        2.21864553825466
H           10.96208902588465        5.37769176045086        1.49969234047102
H           11.28012968543886        2.38861105764380        2.07575205823055
H           11.22299751391322        3.14191022027086        0.49848261903740
