74
 energy: -12.601600476156 gnorm: 0.000508829096 xtb: 6.5.0 (97a52f5)
C            2.46732036804922       -0.04370953878462       -0.73970435309217
C            2.19368685586531       -0.41135250781231        0.70403244202471
N            2.97373486699008       -1.58442939265161        1.14530236094405
C            2.20636198068839       -2.83245520434561        1.32632981995842
C            2.15059428212056       -3.66967159065857        0.06629605572839
C            4.36342409943002       -1.53212948624147        1.32579877446146
C            5.05581676970750       -0.30191571530627        1.32136389977986
C            6.40400682482986       -0.25099216815805        1.50194023420082
C            7.16064187728606       -1.42017587085510        1.70221551904198
C            8.57169907516798       -1.39815523597794        1.89731260699504
C            9.30806037160258       -0.10920290772233        1.89410642460718
C           10.21741700738139        0.16260137931840        0.87075606778272
C           10.89659825005985        1.35606163256079        0.81836251226969
C           10.67967833282457        2.31639482707869        1.78513495423453
C            9.78484686108784        2.07635798165846        2.80193757097485
C            9.09800647881959        0.87567043335947        2.88034302265129
C            8.13002204189975        0.68254517901188        4.00082731408231
O            7.30467357923532        1.55222174850817        4.21531476281454
O            8.23687272193191       -0.45787549123496        4.73919154287753
C            9.24106236118920       -2.60238169777420        2.05621985152035
C            8.51903116384608       -3.81630256987274        2.01993182546812
O            7.16613891798235       -3.85439679013804        1.84276540470022
C            6.49037104196063       -2.66306577685934        1.69263021877704
C            5.10671453598161       -2.68781094427545        1.51432943668275
C            9.18325991852675       -5.09087963158550        2.15208284246657
C            8.41903429405868       -6.20350327586104        1.95170685584016
C            8.78795460891089       -7.57185851887884        1.92111175613085
C           10.03039166934438       -8.17106354221225        1.98806274487615
C            9.99813338687662       -9.56661291470974        1.89908347216489
C            8.72970189762921      -10.09378877165964        1.75391402896094
N            8.42144562089232      -11.42785488653913        1.62232354757525
C            9.40951202976080      -12.53510449690445        1.55457608966466
C            8.64215010583125      -13.77416421703224        1.06345920619383
C            7.15362477087389      -13.47920402714389        1.33954676010294
C            7.04251224370325      -11.94738234497377        1.44188725835448
S            7.55976111291537       -8.81083977361583        1.74897181330433
C           10.63753158762021       -5.15792145937882        2.51808502568143
C           11.18870797333222       -3.83841679871816        3.08363558267377
C           10.73021282805953       -2.63372355252662        2.24982411950783
H            1.89942410087820        0.83393253970708       -1.05387932450779
H            2.20486129824076       -0.86403207096712       -1.40794975409788
H            3.52411518467246        0.16930706269989       -0.90104380541500
H            1.12937625068506       -0.62371709439770        0.84619996769139
H            2.41316960235360        0.42143325413059        1.37910090402820
H            1.19763625613432       -2.57560499711742        1.66546244583770
H            2.64895296956709       -3.39018727993060        2.15747485372088
H            1.63705249019822       -3.13732777220756       -0.73448241553126
H            1.62538805806116       -4.61337344251728        0.22487596884956
H            3.15175502923123       -3.90269348254970       -0.29680696918075
H            4.50736496062972        0.61301587365400        1.19242487485553
H            6.90778679952140        0.69921624772428        1.50507300720967
H           10.36845699959397       -0.57646259841532        0.10307119586632
H           11.59320936141474        1.54501602586778        0.01833447584271
H           11.20779308635944        3.25472748185128        1.74136437575477
H            9.60168295103565        2.82564520744227        3.55311848556749
H            8.96986643968248       -1.01632589789633        4.41174367575576
H            4.62819713372443       -3.64709595181612        1.50960574246828
H            7.37495351072414       -6.01531910540057        1.76464337018084
H           10.95745585690498       -7.62861083217252        2.06174342520909
H           10.88427232573780      -10.18024425013630        1.92981190357160
H            9.82859687255932      -12.68568032363460        2.55347664277893
H           10.22707610685692      -12.25786886861958        0.88279465750554
H            8.98106118926358      -14.69044098263221        1.56182605037207
H            8.80682667377475      -13.92064577099850       -0.01021379520231
H            6.84308427693451      -13.94669940700959        2.28092072805566
H            6.50078993687768      -13.88536347924459        0.55760759904067
H            6.42009179032007      -11.62395678531894        2.28140771801296
H            6.62902493241096      -11.50738074433708        0.52987920062171
H           11.21250838809512       -5.44633595005024        1.63114013022464
H           10.77745114380070       -5.95452851625567        3.25807072994403
H           12.28537531037728       -3.87179162252899        3.13892656477686
H           10.84650748513178       -3.71469606543629        4.11791155795843
H           11.21161661607652       -2.66416026567568        1.26599225419303
H           11.06219389788303       -1.69863221682296        2.71627418508475
