47
 energy: -8.717681449554 gnorm: 0.000528112850 xtb: 6.5.0 (97a52f5)
C            0.86273208755737       -0.35653928662410       -0.12260324340793
C            0.04759606554100       -1.13239938368632        0.60746237619651
C           -1.38933219530121       -1.15181094293122        0.42859743429154
N           -1.89464526172122       -0.37458882814495       -0.53424959531146
C           -3.21153129135259       -0.39070821079725       -0.67867508496736
C           -4.01855472438309       -1.19502575706629        0.10877761254538
C           -3.38946352285050       -1.98568399542899        1.07675072427330
N           -4.15137278689603       -2.84179403024665        1.92755864971742
C           -3.62074636277687       -3.14883132626201        3.26069187738448
C           -2.83783052859474       -4.45926217390202        3.22716615290169
O           -3.63858117607996       -5.52578456273796        2.72951416916243
C           -4.13983388252639       -5.25671071946017        1.42379509810379
C           -4.94777400854930       -3.95903536915014        1.37970267622385
N           -2.06985713747736       -1.94630286858953        1.25018779432639
C           -5.51698395407529       -1.16460260834000       -0.00684154521896
C           -6.03544182220035        0.14677423583000       -0.61382496264077
C           -5.30561199861882        0.44042478508724       -1.92925204686475
C           -3.78512647345805        0.54743323778427       -1.71599923423051
C            2.30802973804933       -0.28866047345728        0.00109104429135
C            3.02327758513136        0.62000459106446       -0.78177145750702
C            4.39428637548831        0.70912672980989       -0.68784987311121
C            5.08383269119186       -0.10667619343488        0.18677127441080
C            4.39603898996358       -1.01444950200033        0.96742198847763
C            3.02458189382532       -1.10663382552889        0.87782249981451
H            0.40947266127276        0.27593483975931       -0.86410725340728
H            0.44936342100091       -1.77261477412766        1.36925730366477
H           -4.45943520904160       -3.22192760760320        3.95983533221202
H           -2.99627429803082       -2.31309363420024        3.59462062023323
H           -2.47674692786445       -4.74628110606294        4.22327336236881
H           -1.96021301999716       -4.36940230135514        2.57663889220659
H           -4.74336498012414       -6.12068973378449        1.11651557699094
H           -3.28271968236605       -5.20418235677454        0.74248443009278
H           -5.86328261636421       -4.05544800731453        1.97067538011677
H           -5.24924578441030       -3.72846440285510        0.35465314754436
H           -5.96047553114661       -1.33535480655254        0.98195423479159
H           -5.84266951575297       -2.00008142271340       -0.63625489149754
H           -5.86228375319317        0.96865814275382        0.09164093267793
H           -7.12309340934578        0.10844352894475       -0.76650048604820
H           -5.69840104005517        1.35584198140651       -2.39314310143659
H           -5.51801290143159       -0.36356451113780       -2.64483666412228
H           -3.52797993712844        1.57089452890098       -1.42027791623495
H           -3.25482934501025        0.37717089721851       -2.66057733968751
H            2.48785693711646        1.25737725447545       -1.46455334981432
H            4.93026310979618        1.41788541477582       -1.29789882484340
H            6.15679574104597       -0.03586084153829        0.25971415303997
H            4.93482439404649       -1.65409194106770        1.64748759596971
H            2.50231338710610       -1.82307266293292        1.48630453633012
