71
 energy: -12.722054837039 gnorm: 0.000672167810 xtb: 6.5.0 (97a52f5)
C            2.35564451496958        0.37768935025472       -0.14383980645561
C            2.26047151905007        1.33224043691342        1.02861690264248
N            2.87821894752039        0.78626999819380        2.25316880441512
C            1.93841563853798        0.35504091481268        3.30687825939295
C            1.54756245867700       -1.10192594553116        3.17766251577648
C            4.26462022826229        0.62995416126426        2.38264782612807
C            5.15527275473815        1.18951567885992        1.43930818542767
C            6.50078532399595        1.03314925200851        1.56120780549881
C            7.06044965416990        0.31226951793989        2.63335185976806
C            8.46380719275947        0.13082264929139        2.78666739593702
C            9.40595058411143        0.72308779741648        1.80377654996721
C           10.16336140318147       -0.10942946686218        0.98009192224773
C           11.02895781046459        0.40841241418233        0.04628454157785
C           11.15425631890410        1.77489392260927       -0.09586462555104
C           10.41276067228118        2.61835696536657        0.69841570721969
C            9.54319991988167        2.11667930525912        1.65278811428048
C            8.74677437579124        3.07941315381830        2.47106137158814
O            8.06151048328168        3.90686742638931        1.89813851191527
O            8.84570091788881        2.98496890432657        3.82630309458701
C            8.92541261521314       -0.62742114224714        3.85085191787617
C            8.00023680385902       -1.18768917184508        4.76279614609512
O            6.65610522016846       -1.00818977671621        4.64183428378636
C            6.18785924389240       -0.26396047779268        3.58196387372178
C            4.81129435790159       -0.08405389990990        3.43813680357815
C            8.43981033359915       -1.99101207671070        5.87753182889196
C            7.48784308206266       -2.53906599574307        6.67823271335138
C            7.71946384446286       -3.38786245399597        7.79364150804441
N            8.92948713078480       -3.81938424721930        8.23390197726459
C            8.71932894760891       -4.59897363228791        9.26740268716808
C            9.78475750151934       -5.27432745784205       10.03797704937733
N            7.35447803305167       -4.71844358144035        9.55638723098330
C            6.62275506995472       -5.40004966688989       10.51037227325775
C            5.26924851627597       -5.30582257931539       10.51415358331562
C            4.60391963300612       -4.51978606897579        9.55690780786481
C            5.30664429326166       -3.84044623267270        8.60917939594656
C            6.70599085920677       -3.94710165057174        8.61780609678085
C            9.90204891472531       -2.20718075831290        6.13202904983773
C           10.78725338030435       -1.12213064353660        5.50018705005855
C           10.39840417935049       -0.86683594893234        4.03605117350733
H            1.91393291258765        0.79660675727724       -1.04993675690898
H            1.84120469667116       -0.55885210668962        0.07224073729681
H            3.39235313116053        0.12462967616737       -0.36644555833182
H            1.21330562292475        1.57085480767323        1.23983484555165
H            2.73407585726322        2.29281101841511        0.80395054781681
H            1.05319035726515        0.99807770588484        3.26935620407882
H            2.39516224807760        0.56170647314070        4.27969569859650
H            1.02052771562024       -1.28380644047768        2.24087941412759
H            0.89487322709340       -1.42400224544666        3.99121757734421
H            2.42599440103437       -1.74763351988894        3.17982636510259
H            4.76490921176808        1.76258672350332        0.61854146102650
H            7.15911483515141        1.47583202775465        0.83485672520526
H           10.04763293083705       -1.17532912579909        1.07387935156216
H           11.60485960366254       -0.25309623493323       -0.57959236803901
H           11.82842991556018        2.18091975608594       -0.83208948632686
H           10.49483284652455        3.68582951990484        0.58414277965618
H            9.46652340167023        2.27467057597432        4.08231420095644
H            4.17680215784091       -0.53742971341283        4.17373356823660
H            6.46439742300066       -2.32022657651723        6.43361320535288
H           10.76430290412374       -5.03606743671968        9.62485190882932
H            9.65708137998196       -6.35597305049721       10.00655293588932
H            9.76824962904721       -4.95636009533864       11.07999064905502
H            7.14898067277869       -5.99637872846153       11.23417747833428
H            4.69594395396384       -5.83656296241739       11.25599198721536
H            3.52848843418571       -4.45543940095876        9.57710403661029
H            4.81249696202326       -3.23351656125867        7.87190321650953
H           10.18393303472191       -3.19327040812493        5.74631763624985
H           10.07286187556647       -2.25041204545967        7.21415681460871
H           11.84750007353318       -1.39980963263001        5.57338050673042
H           10.68597672327277       -0.19220325837902        6.07175084856134
H           10.69173201695661       -1.72814054990504        3.42553729462527
H           10.96106716546633       -0.01445392200304        3.63742678737502
