63
 energy: -11.935582733837 gnorm: 0.000329139242 xtb: 6.5.0 (97a52f5)
C            2.29007903777203       -0.65192975094227        0.26709191286817
C            2.26293272638754       -0.45658557503909       -1.23424085975209
N            2.89255936345426        0.81687963534202       -1.64007540978805
C            2.03082711206084        2.01658806005728       -1.78558513634379
C            0.53415871007108        1.77329034888168       -1.83579467786816
C            4.28331426412967        0.94289002340826       -1.69259067697633
C            5.13630889212071       -0.17230999827718       -1.49711353347013
C            6.48730854943926       -0.04494549507049       -1.54525317619105
C            7.10245893207369        1.20270235575955       -1.79333126856870
C            8.50577375945901        1.35151144890672       -1.84063044466897
C            9.39938972660220        0.17642895359748       -1.69029935638627
C            9.39138266910867       -0.83094250845204       -2.66016498163766
C           10.23215158750263       -1.91375879775143       -2.56983830079531
C           11.10856137323648       -2.02181218717645       -1.50803912196726
C           11.13273849027897       -1.04781260529856       -0.53553726586522
C           10.28781414905522        0.04581710441015       -0.60309162831466
C           10.33250271573823        1.06607196384794        0.50564928974103
O           11.44674881665292        1.52260376824742        0.79410829309646
O            9.26191443378869        1.35904242048282        1.05348191488892
C            9.03283791695907        2.64243471422891       -2.06495375758027
C           10.42298101224775        2.88399748549585       -2.14572779776928
C           10.91441323860506        4.13153861758228       -2.35835685357694
C           10.05157213753522        5.24383413473568       -2.51606200780139
N           10.55758872042455        6.52651091369622       -2.72558097085078
C            9.68821527197935        7.70231787790438       -2.92224519132558
C            9.18905074711506        8.27003696784661       -1.61033683779712
C           12.00420261693416        6.81522441116230       -2.75370016365679
C           12.61929124001957        6.52372694060024       -4.10621034495724
C            8.68312477524480        5.01119504683894       -2.45418623361364
C            8.14773123535717        3.74233688774316       -2.23518304857480
O            6.77829709614829        3.59931579949262       -2.19659390101838
C            6.26796343447263        2.33929348483988       -1.97488507132508
C            4.88400210741841        2.17531076862853       -1.92410337670860
H            1.82368991772245       -1.59183244186506        0.56872476246571
H            1.76524430403700        0.15814473008235        0.77483530148132
H            3.31292057977316       -0.65216873691323        0.64545940379556
H            1.23804713347173       -0.49221910679926       -1.61207781724272
H            2.76797691746280       -1.27649230612786       -1.75371551218770
H            2.34323582620484        2.52913137820522       -2.70144871853301
H            2.27327241708134        2.69044852871040       -0.95694974748657
H            0.26558253497405        1.12837274699111       -2.67362834398878
H           -0.02299839280170        2.70479988759327       -1.95583540111699
H            0.17450278033307        1.30161418543983       -0.92055462471099
H            4.71037211747627       -1.13789099726106       -1.29624890850972
H            7.11257715420714       -0.90455630152021       -1.38044896633093
H            8.71965542254189       -0.73736014640158       -3.49616469247969
H           10.21209046822544       -2.67655844040065       -3.33077727003137
H           11.77173519888752       -2.86853140609744       -1.44010412038773
H           11.81148595576922       -1.12665353780555        0.29644171081509
H           11.09850297854289        2.05580317914252       -2.02435130607145
H           11.97793714402651        4.27664626095191       -2.40920494060007
H            8.86055166725679        7.41944841387254       -3.58000646062716
H           10.24976174641442        8.45781365053419       -3.48214759393109
H            8.62975714125356        7.52369909243539       -1.04529694567468
H            8.53775726513408        9.13381896037465       -1.75738818206334
H           10.02213307099964        8.58522681236518       -0.98077456930918
H           12.49059866554401        6.24319052978042       -1.95747867530367
H           12.15270760816410        7.86517329471488       -2.47962399535019
H           12.47627738928001        5.48000519670065       -4.38770054534954
H           13.69133311828127        6.72944679087404       -4.12335276451077
H           12.15177598808721        7.12835774046117       -4.88439894613503
H            7.99154309208107        5.82202564612749       -2.57152324112667
H            4.28277593016706        3.05270318008782       -2.05990890493489
