34
 energy: -6.148236693083 gnorm: 0.000819811700 xtb: 6.5.0 (97a52f5)
C            1.57872933555801        0.82824273237607        0.74747187007114
C            2.44180438595859       -0.18615899546715        0.02234262776229
N            2.96516577658291        0.31496325105576       -1.26769131648361
C            1.98902187385007        0.78910271288405       -2.27291656291016
C            0.93310659773812       -0.24416613952693       -2.61548179470263
C            4.35719848058079        0.37548946097928       -1.51706556663456
C            4.91285351951193        1.42575896213229       -2.27141823814158
C            6.25469265541304        1.48079086938176       -2.51336291399981
C            7.11676703385568        0.49353659493781       -2.02391684940424
C            8.51989026004290        0.51692293039760       -2.26240842417666
C            9.14437214013759        1.64607881700223       -3.07048494998263
F            8.61045032658211        1.63621928090079       -4.30247854905434
F            8.87080784738519        2.81089087376443       -2.46081215662608
F           10.47254231089083        1.45587689663732       -3.13662359008391
C            9.28849345419408       -0.46608289401464       -1.77191359463530
C            8.73316935553986       -1.55599537688855       -0.99979775351642
O            9.49218234707036       -2.42059506486773       -0.58697287823281
O            7.37870156851909       -1.58452389280411       -0.75659043263927
C            6.58351499987370       -0.57006312733894       -1.26605749948517
C            5.21337724217328       -0.60255035585246       -1.02619875384691
H            1.25896647356895        0.46601398702270        1.72654084009328
H            0.67995167096473        1.06767336804556        0.17890965763137
H            2.12394658679536        1.76066017190781        0.90109530358412
H            1.89840569566161       -1.11808182509599       -0.16281429798054
H            3.29538559790746       -0.45470223839628        0.65244796597547
H            2.54162541334187        1.05670142380771       -3.17926258312726
H            1.53942190166578        1.71720085953458       -1.90624271688222
H            1.39490283188293       -1.16811241191611       -2.96655201714157
H            0.25831162513959        0.10763005974628       -3.39841176124065
H            0.32205448657597       -0.49591626836692       -1.74868619021649
H            4.27267637752203        2.21474340569766       -2.62445230558139
H            6.67558033997224        2.29229976580230       -3.08291502655466
H           10.34814139512135       -0.45295572147180       -1.95168821612741
H            4.81939809242119       -1.43940211200738       -0.48143132570898
