39
 energy: -6.914474649829 gnorm: 0.000851473668 xtb: 6.5.0 (97a52f5)
C            1.39258005565964        0.82149479259723        0.12420920819704
C            2.42998629223863       -0.28267072845770        0.07908420263694
N            2.96947933161220       -0.52943343000072       -1.27532616743438
C            1.99161480855596       -0.74569377939881       -2.36431043019036
C            1.08638060268619       -1.93464586540983       -2.11352739833711
C            4.35723615350810       -0.68495750326413       -1.49034114266526
C            5.19510489377527       -1.17736304790607       -0.48385948341974
C            6.53820061572516       -1.32798119816359       -0.70343367499410
C            7.11312319264714       -0.98992806537394       -1.93316115404985
C            6.29166302520275       -0.48640611542273       -2.95863945655872
C            4.94070846380338       -0.34834369697497       -2.71862281471511
C            6.86759303986911       -0.08378868407258       -4.32578382365953
C            6.20912137826067       -0.92642525175745       -5.42698646062240
C            6.60310262528025        1.40794864290901       -4.57440120709561
C            8.39211820062376       -0.30286203431124       -4.42781286513160
O            8.96047416486926       -0.01632952208655       -5.46184620935406
C            9.12124712828883       -0.84133564314888       -3.29892068471455
C            8.52651322534395       -1.15792795944862       -2.14101887913088
H            1.07870417431188        1.04686286719204        1.14600210467933
H            0.49687411992679        0.55388043728619       -0.43773387643851
H            1.78642998582867        1.74066883708140       -0.31237059192091
H            2.02754593420258       -1.22362128038037        0.46727700724008
H            3.26773032739885       -0.02010259253427        0.73294326956701
H            2.53652003801428       -0.89124121964564       -3.30174846823061
H            1.41424325091650        0.17430457530351       -2.49917685227600
H            1.67304656676558       -2.84149400073613       -1.95890492591189
H            0.40773480069837       -2.11627015487746       -2.94969234750583
H            0.47494254578212       -1.79174522235847       -1.22176862301069
H            4.76986397667892       -1.47663929413919        0.45759614380581
H            7.16985048515756       -1.71765792714378        0.07641673315772
H            4.31875398588360        0.07052833364791       -3.48685632440803
H            5.13341960606671       -0.76164922315767       -5.46668036218944
H            6.38335375686639       -1.98720927362638       -5.25117386383934
H            6.62591198558762       -0.67481674181086       -6.40133030504319
H            5.53666460354437        1.62668518892793       -4.59973879215563
H            7.03420049208351        1.71874794770458       -5.52515488236196
H            7.05458951249537        2.01174619815191       -3.78818764679401
H           10.18024404032449       -0.98017358950727       -3.42218325803077
H            9.11275861351513       -1.55349477568645       -1.32937569709414
