87
 energy: -15.558803123473 gnorm: 0.000172130272 xtb: 6.5.0 (97a52f5)
C            2.13359159067711        0.76418788381922        1.29057090128524
C            1.97919870414143        1.17829872342603       -0.15805564480051
N            2.72204408316753        2.41406402127506       -0.47448379670541
C            1.89885120282580        3.62348094258971       -0.67200840687739
C            1.70238746278766        4.40847784031734        0.60726243374545
C            4.12197766261172        2.44766233123366       -0.54081497789498
C            4.88414603471659        1.25891534502539       -0.51388363302731
C            6.24207424252643        1.29020750816255       -0.60171464702100
C            6.93789232039952        2.50665737927493       -0.72462219219081
C            6.19806865232406        3.70823500677333       -0.73665543997964
C            4.80676148320041        3.64941810198025       -0.64721876182516
O            6.81372847098695        4.93768319033688       -0.83599159519496
C            8.17268780718677        4.97738306063711       -0.96586201357141
C            8.76479142071118        6.28208600611315       -1.08827803091001
C            7.94016237451415        7.36765577084504       -0.99639703622332
C            8.32523851001542        8.71242258339188       -1.15722475838854
C            7.55531214000204        9.80701924156399       -0.85852066655778
N            7.95158719643001       11.10979216451204       -1.06584207796415
C            9.19506191592899       11.50821208592122       -1.72067859816143
C            7.03712734690353       12.04166742407486       -0.51774675215188
C            7.12488627499211       13.44499624441796       -0.47083343896077
C            6.14066187488279       14.15301397682262        0.14068918879858
C            5.02685611418850       13.50344528149173        0.73223650479535
C            4.00893824470591       14.23997005050903        1.37315930726636
C            2.94350869915690       13.60968027657118        1.94058883327648
C            2.83982862223755       12.21625731203543        1.89246842814436
C            3.80221120573519       11.47161005830382        1.28221188375130
C            4.92834302387111       12.08660033526725        0.68692245798522
C            5.97159680866743       11.36864277836445        0.04792728029443
C            6.19180984064684        9.86324734165290       -0.15137478917846
C            5.08955011065029        9.28692253809048       -1.05456611433863
C            6.27085578934538        9.14736553784202        1.20741023357612
C           10.24806095468578        6.43140026721715       -1.26970744587343
C           11.03531953317115        5.24213826993972       -0.69835297794409
C           10.45399721035567        3.90509334006315       -1.18003868945652
C            8.96544722963637        3.80440500184860       -0.98334245148448
C            8.35537499373389        2.56715229916096       -0.84740508070199
C            9.15525426119405        1.31554828271206       -0.83004373859163
C            9.91399135836740        1.01642706248559        0.30294407499277
C           10.65309283189422       -0.13895212825914        0.38449641744769
C           10.64642039710378       -1.03430010304893       -0.66443013324306
C            9.89865758279939       -0.76760433255704       -1.78803796102015
C            9.15090406247955        0.39427402836960       -1.89832816342809
C            8.34792730853975        0.58336454032923       -3.14374642460875
O            7.83921087078589       -0.39864114488752       -3.65581971695043
O            8.24147969467770        1.83626889553964       -3.67105611041403
H            1.59780559082927       -0.16083306381074        1.51160068962630
H            1.75221623206225        1.53552798446611        1.95994850615670
H            3.18132183672921        0.61072492939872        1.54965538927564
H            0.92243126303927        1.33221108614509       -0.39835935799934
H            2.31592141997966        0.39040576470365       -0.83883830002256
H            0.93424880457325        3.32449751041658       -1.09480230426821
H            2.36790611183274        4.23564760921604       -1.44860858827621
H            1.16260424545381        3.81897378879527        1.34866714098984
H            1.13699553432207        5.32736375873601        0.44108792777648
H            2.65918261318401        4.68204679895699        1.05262300181212
H            4.38316964984306        0.31118797594005       -0.44113115809744
H            6.80248984665336        0.37220715098466       -0.59184462664859
H            4.27259716653822        4.57878065646291       -0.65638709645685
H            6.90751285117746        7.15746207429873       -0.79208870783900
H            9.31051292321055        8.90032182747144       -1.54112648819875
H           10.02566775701377       11.41954414530057       -1.02412752371519
H            9.13363073221213       12.53611308366862       -2.06773701712476
H            9.38313597841044       10.87503928716586       -2.58471283813982
H            7.97054158305066       13.94473759073387       -0.90708123979078
H            6.19743455898183       15.22667746923658        0.18614414660031
H            4.08654860232976       15.31269392765067        1.40998834864523
H            2.17432647658830       14.18494419136356        2.42896055790760
H            1.98956870850097       11.73138338161475        2.34317167563124
H            3.70042191795628       10.40316252375389        1.24865063415375
H            4.10723174153779        9.39507686384783       -0.60021814959483
H            5.24289573096280        8.22988283030518       -1.25668957702665
H            5.07327635301682        9.80992046366702       -2.00966201683059
H            7.05985720182082        9.58453974202178        1.81773823019489
H            6.48923588191767        8.08830945332611        1.09017650067661
H            5.33844506544774        9.22983946026019        1.76033483128033
H           10.58312799720673        7.35959976139597       -0.79216993880619
H           10.46458503257534        6.54525847623022       -2.33787674859435
H           11.00294659402145        5.27773593436371        0.39720712456424
H           12.09809909159254        5.31899556806715       -0.96550985633250
H           10.95238291906471        3.07308813431474       -0.67040541902525
H           10.67742190511374        3.77124237021498       -2.24427405060731
H            9.90234764757356        1.70692324978499        1.12876499006918
H           11.23214169076820       -0.34823126459109        1.26876381173927
H           11.22108695668857       -1.94368724613514       -0.60129225193525
H            9.87771543323276       -1.47016637937543       -2.60371136104747
H            8.68402483239898        2.49227850811519       -3.09663457049236
