81
 energy: -14.166651282506 gnorm: 0.000405416293 xtb: 6.5.0 (97a52f5)
C            2.29635161855428        0.66960014418641        0.45999485700614
C            2.18253919927708       -0.81173539948307        0.16894761620734
N            2.76501917992934       -1.16630801007469       -1.14094736065410
C            1.88340979281780       -1.16012419066975       -2.33428435847475
C            0.38991005020862       -1.12636777816242       -2.07038966462990
C            4.15255064781297       -1.31616842106623       -1.29392556709997
C            5.02846409531482       -1.26542904110077       -0.18631605413355
C            6.37162891077014       -1.42421603995597       -0.33988816948185
C            6.94221336566111       -1.64286391847902       -1.60644478707271
C            6.08990889053024       -1.68030290501136       -2.73023517655909
C            4.71619421600241       -1.51819806036827       -2.54625580627473
O            6.57896881226056       -1.86823478717707       -4.00542373990397
C            7.92573740345964       -2.02597450065745       -4.16988432586246
C            8.39033266947939       -2.20385823790298       -5.51920702770822
C            7.45043896672654       -2.25948986227417       -6.50923902905121
C            7.70283690713537       -2.46097876029900       -7.87718939958754
C            6.75601922718024       -2.48255664871170       -8.86768543975366
N            7.04083340105621       -2.68157340860214      -10.20215455137107
C            8.38156366104677       -2.89329345232949      -10.74068735431180
C            5.87582940772097       -2.65418116964966      -11.01365173522084
C            5.71756691015061       -2.82232198781187      -12.38270108880436
C            4.45018885734514       -2.74860607761903      -12.91976506411638
C            3.35077688774513       -2.51138122141814      -12.11083629382014
C            3.50253235307944       -2.34547446615972      -10.74637563854451
C            4.76708376532173       -2.41825098441597      -10.20134210135186
C            5.23513062764039       -2.28893576723266       -8.75155531161469
C            4.59117384241082       -3.39732560544153       -7.90394518396563
C            4.89051155666548       -0.88914958438964       -8.22020763058047
C            9.85909266851807       -2.30374759944048       -5.82326086227012
C           10.74944012476707       -1.76059614287329       -4.69382410677483
C           10.28720752607454       -2.27449249834008       -3.32336309378643
C            8.82587859499431       -2.02111980255626       -3.07749861056731
C            8.34267334983553       -1.82375698341494       -1.79364664930516
C            9.25644274150639       -1.79582909147504       -0.62326770319299
C           10.11008830076476       -0.70443926274666       -0.45406475936532
C           10.95429896760180       -0.61804251630534        0.62665947972878
C           10.96052769842805       -1.61837218856117        1.57625103224862
C           10.12051607346370       -2.69907874124309        1.43871669903072
C            9.26703803733497       -2.81377009726244        0.35290772861090
C            8.36975754256212       -4.00651064542898        0.29766899379151
O            7.87485735681842       -4.40609097322381        1.33698519571675
O            8.16679462095992       -4.61121326858579       -0.90708434026595
H            1.87366533059094        0.93157299846138        1.43170636430674
H            1.77803298170629        1.25657508424990       -0.29883846670482
H            3.33785887525197        0.99221534552899        0.45270987983525
H            1.13942337370554       -1.13607002974668        0.20107119652065
H            2.67225181849359       -1.41015032750608        0.94269212987522
H            2.12463943521672       -2.05378811736478       -2.91890990510269
H            2.17616377199888       -0.30110558906619       -2.94707387908337
H            0.07114256626786       -1.99354862221635       -1.49074652060697
H           -0.18433491868280       -1.13121064550858       -2.99896334096412
H            0.10116515162964       -0.23028746910334       -1.52038040022325
H            4.63346599231269       -1.09706378816536        0.79818999364365
H            7.01772463341543       -1.39053727329777        0.51941276657245
H            4.09779906486704       -1.54787893049819       -3.42137842973954
H            6.43105288041534       -2.14438311725497       -6.19496481263130
H            8.72144687754829       -2.62543521882110       -8.17376961443426
H            9.03632095197403       -2.07924345700770      -10.43792007948810
H            8.36245589805110       -2.92856134934330      -11.82629457398022
H            8.78481524087674       -3.83305773095581      -10.37010233073925
H            6.57008762833109       -3.00981404690294      -13.00962989107444
H            4.31329514233849       -2.87706088976551      -13.98083163385335
H            2.36760488623555       -2.45696580328175      -12.54807791715227
H            2.65296006462413       -2.16305626943209      -10.11237291971154
H            4.84798882277999       -4.37727493966231       -8.30363155955787
H            3.50611518870545       -3.30638473679185       -7.91055085980560
H            4.92075554138121       -3.36173924649740       -6.86844381985568
H            5.34964279678622       -0.12380111015265       -8.84432916557557
H            5.24163169189979       -0.74481750275594       -7.20108776438321
H            3.81373892754750       -0.72739047171175       -8.22825208563672
H           10.07212058680832       -1.76143848935346       -6.75200917106213
H           10.10746934038124       -3.35236022347624       -6.02209847823328
H           10.71586589932603       -0.66456667034033       -4.69869923629222
H           11.80096920435659       -2.02520285835627       -4.86973331298858
H           10.88754127226761       -1.82346180522985       -2.52575836417927
H           10.47258294203453       -3.35223705231678       -3.25574574845922
H           10.08803337408001        0.08629376753245       -1.18420215884826
H           11.60594440452855        0.23309215934735        0.73584212404326
H           11.61774813268820       -1.55020640153038        2.42752505692215
H           10.10877378954378       -3.47514032548985        2.18500276875002
H            8.62688161073684       -4.12513889252061       -1.61990945694968
