66
 energy: -10.757899544866 gnorm: 0.000378592217 xtb: 6.5.0 (97a52f5)
C            1.71042836379508       -0.63403434388008       -0.38561671143363
C            2.05542586609938        0.61659092213614        0.39511538335449
N            2.81842357417675        0.31248375075059        1.62295492687526
C            2.07405107112522        0.11209987629991        2.89130329026756
C            0.61510365507933        0.52796847841040        2.89477040725018
C            4.19059597411029        0.04162884877870        1.56631969460318
C            4.92008442892070        0.15918959673946        0.36644257410353
C            6.25538010957263       -0.10810388650687        0.32031362699603
C            6.97358893967327       -0.52890363629814        1.46230540328413
C            6.25284154424984       -0.62701596161711        2.69296083691700
C            4.89471634293591       -0.35111673767555        2.70592248960229
O            6.83872491706008       -0.99151176423588        3.89402012118580
C            8.19370492702657       -1.29429747214368        3.91353881989312
C            8.72376747275533       -1.85451101200087        5.01228989589886
C           10.14468987829073       -2.33775808585315        5.06956843474600
N           11.04919557341653       -1.39623716787942        5.80827289689514
C           12.40419730562626       -1.96849648133053        6.09904879214709
C           12.37199913303119       -3.24394776637032        6.91717261837093
C           11.06328149541664       -0.04874243523715        5.19260855422341
C           11.78730425072994        0.99962008759381        6.01385246054265
C           10.66052341652924       -2.65090700347206        3.69740837540588
C           10.16474105041032       -2.05186966278433        2.62949702334711
C            9.09289190163614       -1.00019902351454        2.73935813035430
C            8.36464848752942       -0.75579769161098        1.43035840034913
C            9.14311506699854       -0.70695893674274        0.20667347654928
C            8.69228354526534       -1.35603899220894       -0.96436231424923
C            9.46618904296358       -1.41806943577153       -2.09134322637449
C           10.72803316109070       -0.84520169829227       -2.10524674378613
C           11.20318073267176       -0.20010297909238       -0.98825837163468
C           10.43727039659222       -0.10119200572965        0.16296729265586
C           10.97748536791071        0.67806668520695        1.31451267139473
O           12.07147016003784        0.39387420655203        1.77615674164647
O           10.19573874446588        1.68503036453526        1.80600275994348
H            1.15516302718775       -0.40856031851020       -1.29789151247644
H            1.10410340116756       -1.31304155471833        0.21458931418114
H            2.61011107336045       -1.18044636280583       -0.66984689414623
H            1.15212134354797        1.17239445568985        0.65759005145714
H            2.63631677424482        1.31888178322690       -0.20970824934846
H            2.60778396075400        0.66748900995837        3.66911178807673
H            2.16170117610434       -0.94810083705620        3.15049332148480
H            0.50583881883108        1.59122490714235        2.67775652331491
H            0.14744523959784        0.34851263420655        3.86488192242661
H            0.03921292030252       -0.02751135086396        2.15409343360536
H            4.42103863517598        0.47177756143494       -0.53190204602961
H            6.78555970941826        0.04532303362228       -0.60184573775047
H            4.38697810084589       -0.45450377150089        3.64454099409523
H            8.07953236736682       -2.02059402172616        5.85602676513292
H           10.13871331502169       -3.27086962842311        5.65298744715300
H           12.97210229293841       -1.20677665719419        6.63993442225123
H           12.92660407634130       -2.11892609481857        5.14954707004767
H           11.75480420253554       -3.11693178226011        7.80723555290888
H           13.36995087047846       -3.54057351758070        7.24578555864217
H           11.96159173617682       -4.07919826729682        6.34947030297259
H           10.02119012565743        0.25596777118418        5.06058672845109
H           11.50019229348780       -0.13511233832936        4.19140142021524
H           11.43185033867271        0.99709231614585        7.04489905797438
H           11.63503284667241        2.00350001372948        5.61266198882137
H           12.86300060972357        0.82422293567401        6.03552774717306
H           11.43876652848113       -3.38721051546338        3.58988674876798
H           10.53780974176031       -2.29771004330643        1.65077519108185
H            9.59051181812527       -0.05102127862488        2.98094343580034
H            7.74649377371052       -1.86888813273475       -0.94096078926051
H            9.10215090126052       -1.93016303760887       -2.96674118661123
H           11.33614968006691       -0.90523277037436       -2.99275909866813
H           12.18040188974152        0.25169124923258       -0.99742907333767
H            9.38759051407687        1.79513597321540        1.26834907029898
