57
 energy: -11.334224600496 gnorm: 0.000837689953 xtb: 6.5.0 (97a52f5)
C            2.12714879886755        0.02418798711201        1.60556672069682
C            3.45102788385335       -0.70721825891293        1.68033357206266
N            3.39683164776862       -2.04362863832713        1.05321723526795
C            3.02814876318026       -3.15528529492444        1.95348431188447
C            1.61159662675973       -3.64213757704394        1.72424126655706
C            3.59318037731338       -2.23029549774862       -0.31934305717049
C            3.64940766145381       -3.52821389363623       -0.87916668428931
C            3.82118805698144       -3.71499605449520       -2.21688068746093
C            3.94807094542127       -2.61549525351579       -3.08733989622746
C            3.90434105421718       -1.30503996815051       -2.55276714004818
C            3.73183641325539       -1.14611842445580       -1.17935122271590
O            4.02319632390827       -0.18844427811399       -3.35870389961337
C            4.18057557750031       -0.34755141011461       -4.71189131957769
N            4.28684338900070        0.75414505781853       -5.50888135582036
C            4.35088240743096        2.07173077800046       -5.01890924941845
C            4.66949916678486        2.35522583389204       -3.68795749466198
C            4.76561257859132        3.65476817194038       -3.23443783893311
C            4.54344163614831        4.70551584819383       -4.09991449771448
I            4.69020366933464        6.66468055851304       -3.41623597870799
C            4.22504599737275        4.45663641181759       -5.41857620400161
C            4.13056327084148        3.15667370358901       -5.87067870940347
B            4.31754051977927        0.68838126932443       -7.05450648346401
F            3.12051890540291        1.18146612234655       -7.55718391540371
F            5.40485149501079        1.41174127949754       -7.52692532726603
N            4.46877722426540       -0.75091082884636       -7.53493488292234
C            4.39896358967415       -1.81843465362186       -6.69546497759780
N            4.51459368728565       -2.96719628201078       -7.38894145584174
C            4.65590482955928       -2.60348738201630       -8.69733952199252
C            4.79485979935674       -3.38035565233441       -9.85663403413781
C            4.90128112506175       -2.74672384675016      -11.06885577770951
C            4.87168835901922       -1.34649212288901      -11.17236072623545
C            4.73588735677292       -0.55612554949023      -10.06107877563885
C            4.63028736123278       -1.18392945976868       -8.82004586728457
C            4.22427732087395       -1.66244089924707       -5.27674049032002
C            4.11392865440202       -2.75983264499585       -4.46917609372442
H            2.19299446146854        1.03421225772687        2.01474638939163
H            1.35448346078439       -0.50624708763906        2.16275200244572
H            1.77898641075322        0.10431271361797        0.57526018231591
H            3.77198100363403       -0.82202632219902        2.72071935040267
H            4.25132454819036       -0.13420410020359        1.20199729382206
H            3.15350503115643       -2.82522709262772        2.98962088891597
H            3.75600693934157       -3.96142409399108        1.82002881369925
H            0.88941216773314       -2.84580623935698        1.90658516296769
H            1.35461002889938       -4.47806645862408        2.37789736270425
H            1.46608687975049       -3.96978525827956        0.69453713200188
H            3.56590743083747       -4.38490673516562       -0.23582818073267
H            3.86201620114097       -4.70957802110124       -2.62619851329743
H            3.68924300954825       -0.14442790454105       -0.79976359396321
H            4.84593890969158        1.54076972828925       -3.01152997003894
H            5.01383828921048        3.86174657564156       -2.20467392587855
H            4.05281653153748        5.28632858922070       -6.08705476382758
H            3.88251903683825        2.96146290007077       -6.89772781613965
H            4.81345321387148       -4.45233328156362       -9.77730299874794
H            5.00964146106701       -3.33618745395037      -11.96423677404553
H            4.95678234605353       -0.88682244098393      -12.14313362694946
H            4.70978986356936        0.51728655278727      -10.11993355360908
H            4.15309030127028       -3.74163597774089       -4.90333040261956
