75
 energy: -14.767030196982 gnorm: 0.000602122327 xtb: 6.5.0 (97a52f5)
C            1.84227249730398       -4.99047192052575        4.42599912077946
C            2.62519185808472       -4.33513377559846        3.30498458088461
N            2.87488761188203       -2.89851814302000        3.54041382930431
C            1.97413471255511       -1.96551262591333        2.82352903904937
C            0.49977323547937       -2.22447354915191        3.06673574740974
C            4.00023792714117       -2.46408958275703        4.26564173318604
C            4.75113001160087       -3.36148820652038        5.04597175248141
C            5.81668853979566       -2.93742105699992        5.78818918895609
C            6.19831660209357       -1.58790153248551        5.83240091012348
C            5.53782211547488       -0.70342374960655        4.95459766046294
C            4.44413156906258       -1.14761412164157        4.21761461346114
O            5.95816526691072        0.59883760970584        4.76691522402026
C            7.12242389831502        1.02982636076203        5.36597008405476
O            7.54315152427119        2.15121608586626        5.12454375446436
C            7.81710593959642        0.15621487225747        6.31730549541975
C            9.08088839007706        0.58299047948893        6.92606233027238
O            9.67934634607308        1.56252117204190        6.50942777480800
O            9.61195062970947       -0.14630913802828        7.96735839490490
C            8.91891648371620       -1.22668265807881        8.47066973791543
C            9.37266670804078       -1.76929882523201        9.67844330232295
C           10.54220935513351       -1.17129686333349       10.35474921299570
C            8.66040649135589       -2.79314337357940       10.30930355732179
O            9.05377447164314       -3.17304224686880       11.57673697604385
C            8.23918612786679       -3.99576524031874       12.33085565901280
O            8.52248778323765       -4.22131158791749       13.49685242105185
C            7.06686151423668       -4.61757739183758       11.70767414082161
C            6.13794804433975       -5.44027556832050       12.48971439782213
O            6.24977874358096       -5.52683483623199       13.70312005593928
O            5.10454402611959       -6.09688100808561       11.85103521540937
C            5.05056195228026       -6.10458036182654       10.46887602487499
C            4.13019109021893       -6.94033889241112        9.84406058317867
C            4.09119538414319       -7.09875583955839        8.46404736354309
N            3.16615662891639       -7.96151139877721        7.85676535439436
C            2.15596874072030       -8.70926847107648        8.62976944516869
C            0.96665281336241       -7.84580934399172        8.99690479383055
C            3.15426102169487       -8.21397649900058        6.40340522208475
C            4.17242044699966       -9.25951377233961        5.99861655359957
C            5.04115471497194       -6.39233138751201        7.70488129091935
C            5.92684863779661       -5.53949417578804        8.29939736175182
C            5.92011432648051       -5.32078466529877        9.68480722845299
C            6.84170425250657       -4.43529020922761       10.35399273142388
C            7.54344240857726       -3.36905621692696        9.66485873947360
C            7.09655359054214       -2.79567606414557        8.47540431303040
C            7.76706038989739       -1.75280739475995        7.83804333636078
C            7.27397983440823       -1.07428719717528        6.65107715465875
H            1.69393438050062       -6.05745858507970        4.24928100452766
H            0.85676158899041       -4.53923429385216        4.53914189915383
H            2.34869893295577       -4.87639108348562        5.38452621738382
H            2.10074021883308       -4.44110977533933        2.34996524903661
H            3.59064936083303       -4.82818338249783        3.15318662119319
H            2.21453624998082       -2.02446851522966        1.75704837355005
H            2.20601573118136       -0.94375539871719        3.13065068571884
H            0.19563889018220       -3.20275021849526        2.69402814238870
H           -0.13034602545726       -1.48161048834912        2.57321008266435
H            0.27180112338075       -2.19249240824728        4.13297619833344
H            4.48800155158510       -4.40306423920725        5.05539861149034
H            6.42997520921072       -3.66534771214157        6.28338700591519
H            3.98647038117492       -0.43623697519500        3.55895555730530
H           11.23961573088846       -0.75886314686101        9.62429277922027
H           11.06559827078637       -1.91961990831100       10.95143864859017
H           10.22889253999096       -0.36537565592275       11.01882071492134
H            3.46385006564954       -7.49563775196857       10.47465772345311
H            2.63764033424226       -9.13329663933644        9.51584478760886
H            1.83729799703333       -9.57379596005739        8.03820977133710
H            1.27480553857259       -6.97999374526679        9.58386284908929
H            0.22391533365712       -8.39587608338084        9.57805988117573
H            0.47306983845249       -7.46404479609957        8.10230526351963
H            3.32328945114613       -7.26739870272356        5.88304412929944
H            2.14412152413621       -8.52276765899482        6.11480003163483
H            5.17998747443502       -8.95962459552893        6.28867451580922
H            4.17349781938727       -9.43563846955642        4.92120425056949
H            3.96983508934766      -10.21100994492603        6.49181143647645
H            5.08968161347184       -6.54219777320040        6.64203602344236
H            6.70787231319290       -5.09411166858664        7.71140426666776
H            6.12722681417415       -3.08429211188434        8.11690387105057
