46
 energy: -8.928430065405 gnorm: 0.000889442310 xtb: 6.5.0 (97a52f5)
C            1.57338921950384        0.39907837963464       -0.71846947051819
C            2.48913544715473       -0.03237819820096        0.40953348660236
N            3.00998757617890       -1.40670316671340        0.23974508087671
C            2.02074882766901       -2.49378120450341        0.06877072361201
C            1.02068819329600       -2.56918349306730        1.20513039575306
C            4.39897223937808       -1.66691592454063        0.24676042562085
C            5.27511893609515       -0.90659298534407        1.04032563934253
C            6.61971446032886       -1.14501142422974        1.03111908750726
C            7.18825556340625       -2.13387579783578        0.20996938872078
C            6.30896004475454       -2.96658301268356       -0.51381729166317
C            4.94342511530719       -2.70048239538288       -0.50417531742958
O            6.75336744103877       -4.06518851226709       -1.22579582120785
C            8.07308813583878       -4.45487477559246       -1.12378176582736
O            8.43870108502985       -5.48704214354104       -1.66573909330061
C            9.02391342678045       -3.61098575804634       -0.39215544684030
C           10.41262804320822       -4.03303551755166       -0.20068471492804
O           10.80270992118903       -5.11986415974343       -0.60306845437290
O           11.28678388912555       -3.20778253870626        0.47401368412613
C           10.91920450885762       -1.92037200830030        0.80426837109331
C           11.90958612989972       -1.03783778319081        1.32949659403132
O           13.22736932085597       -1.40002045881075        1.63519048372465
C           13.54449277449765       -2.75575632948325        1.46229150539987
C           11.56876680291450        0.28638682156904        1.54539061860347
C           10.30822332859175        0.76177549246198        1.23879191978613
C            9.34907210682920       -0.09022332511510        0.76335862744813
C            9.60765353056345       -1.46068918734004        0.59931746671645
C            8.60539771799645       -2.40400458999527        0.13649792997933
H            1.25708068553162        1.43869437676492       -0.61277841813456
H            0.67261517046912       -0.21369613062457       -0.75807038212681
H            2.07378567661378        0.30141777742184       -1.68293523497187
H            1.98799167680199        0.02918296556541        1.38013168516615
H            3.34223200404646        0.65006732730219        0.46640026838855
H            2.56236872049462       -3.44122875381418       -0.00252612988860
H            1.52200943195296       -2.35911854223354       -0.89576328865219
H            1.53108094874436       -2.66179414110429        2.16460212311109
H            0.34948267602193       -3.42384009021951        1.10206453202573
H            0.40187769863556       -1.67300936158886        1.25310445127734
H            4.86849715757607       -0.16346008522373        1.70311296720443
H            7.24448463123034       -0.61369886485777        1.72644785317574
H            4.31107986644105       -3.31160996184974       -1.11909701650519
H           14.57450611901709       -2.92276869350481        1.78126842457294
H           13.43711839921025       -3.01537593304092        0.40739004358454
H           12.86704359051329       -3.36442909469969        2.06403138275946
H           12.32364814636215        0.94828662854254        1.93185352518829
H           10.08469335905141        1.80835160818788        1.36671577522189
H            8.40572025499898        0.31378296549621        0.44205338574690
