42
 energy: -8.299718024023 gnorm: 0.000950913701 xtb: 6.5.0 (97a52f5)
C            1.48145187335643       -0.02021771396199       -0.89211895006207
C            2.35001285291397        0.10255592507331        0.34414412518742
N            2.88092850797618       -1.19803659629960        0.80929003804124
C            1.90253224440739       -2.26677495452476        1.11141215626091
C            0.84844641720932       -1.84216982519108        2.11515363269847
C            4.27086227450772       -1.41486761210892        0.93754869023756
C            5.13426151690162       -0.37562811240834        1.32617215820639
C            6.48032487060994       -0.58058272240715        1.42894503881061
C            7.06318718936887       -1.82227391412854        1.12239714771856
C            6.19675665085225       -2.89596396079622        0.82842541929019
C            4.82893430845189       -2.66682705767857        0.71539269588124
O            6.65566576381729       -4.18914771765647        0.66476286620333
C            7.97836549383191       -4.48134251736935        0.92490181477671
O            8.35895393424577       -5.64095323744663        0.87114210296201
C            8.91615630229701       -3.39529701112691        1.23145383282023
C           10.30624726083212       -3.68574236670375        1.60224463045353
O           10.69197418575712       -4.83754635322908        1.73125826311955
O           11.18204318481981       -2.64677798898023        1.84148474129022
C           10.78967858576084       -1.35024109212384        1.57549772239531
C           11.75450840489888       -0.33623867093095        1.65736427465715
C           11.45497895501205        0.94819404325502        1.30197803065085
Br          12.77981517915200        2.28062455083794        1.42799493932183
C           10.19182159411507        1.26045839359762        0.83356220072541
C            9.22191008730297        0.28834592097133        0.76752720814819
C            9.47397854947901       -1.02275294735186        1.19582457729950
C            8.48240780536693       -2.08313994236347        1.18150009726482
H            1.16026358029189        0.95504468042546       -1.26392868043360
H            0.58318688363320       -0.60576537702971       -0.69338098121824
H            2.02249552845624       -0.52098754955696       -1.69657676092131
H            1.80827965718011        0.57030220649270        1.17164173267098
H            3.19823852557433        0.75950547261379        0.12975652757278
H            2.45067691786107       -3.12902372120684        1.50318181528052
H            1.45123793309952       -2.59688780424567        0.17058423484913
H            1.31267324726311       -1.47345384780759        3.03083132273521
H            0.18739693380474       -2.66749610432593        2.38715467959240
H            0.22243476534091       -1.03987178178110        1.72410154881925
H            4.71609975367185        0.57687551884328        1.59949513671120
H            7.09425388505139        0.20511271816911        1.83105974175466
H            4.20611890568158       -3.49116965898615        0.42560191943056
H           12.74971749632318       -0.58722764986814        1.98057645210923
H            9.98656162895984        2.26889208753629        0.51275703084690
H            8.27863036456112        0.52662429177922        0.30986482584081
