62
 energy: -12.441986145287 gnorm: 0.000603706010 xtb: 6.5.0 (97a52f5)
C            1.79326278750955        0.82374182749388        0.52300753044921
C            2.67126189006968       -0.39640446512574        0.32948379979513
N            3.16111953809537       -0.54571352665116       -1.05850790476086
C            2.14756204677437       -0.57613048230730       -2.13608281725292
C            1.08868625643086       -1.64046492166103       -1.92857958853336
C            4.54115729224487       -0.65283950525018       -1.34029643786356
C            5.42367148778291       -1.26077258073898       -0.43047164296199
C            6.76039798022043       -1.34910340313920       -0.69714709728201
C            7.31541434714232       -0.81414134537543       -1.87232699270988
C            6.42761787975376       -0.28874524970387       -2.83399694665156
C            5.07105905913849       -0.19272741768908       -2.53901966751971
O            6.85603681842598        0.12161277956268       -4.08426568257175
C            8.15983579471366       -0.11722416561560       -4.47402003043048
O            8.50939293525593        0.16533288801591       -5.61106286809438
C            9.11426879770781       -0.67270049014622       -3.50738616514747
C           10.47560362637463       -1.03754188295269       -3.91793778364403
O           10.81236206939567       -0.98550737020333       -5.09213143427426
O           11.37878109237481       -1.48084498424425       -2.97097734706569
C           11.03908233245197       -1.44565709181501       -1.63056070456680
C           12.03082421467135       -1.73173947019631       -0.68944572588496
C           11.79803179681148       -1.62411000179794        0.66668983593304
C           12.81563461603906       -1.90892235505737        1.59587012059537
C           13.70027822407054       -2.15577323616889        2.40226577646365
C           14.71987941719644       -2.44147431431093        3.32754818400300
C           15.37674438154725       -1.41788322324821        4.00560321891493
C           16.37561653755911       -1.69549229343884        4.90680974324753
C           16.76351529727319       -3.01251605857244        5.17071308603850
N           17.79218954436632       -3.29724058658990        6.08805464126971
C           18.57104395773916       -2.23188244514614        6.71967626335406
C           18.15720036290968       -4.67248400004692        6.42721358085282
C           16.09905867068504       -4.03609419917554        4.48846831499432
C           15.10073962590906       -3.75538366671284        3.58754030254920
C           10.53991766283133       -1.18917208153952        1.09038734246539
C            9.54737774654341       -0.92479640508213        0.18387162889037
C            9.74555943890622       -1.10410572473268       -1.19270715504537
C            8.72344696444189       -0.86209316182256       -2.19244071080969
H            1.49128456305850        0.94902950668879        1.56471322138423
H            0.88292964090165        0.76170238564610       -0.07359924498335
H            2.31804985357691        1.73010073991305        0.21794933596406
H            2.14817819132929       -1.31536780515051        0.61118453349358
H            3.53846661995259       -0.32932907680975        0.99294719115338
H            2.66060437344594       -0.75588959100095       -3.08508611391656
H            1.70307150988792        0.42035365212216       -2.21925232853599
H            1.54588394181829       -2.62494847819993       -1.82089093503534
H            0.38884952904899       -1.68911923711346       -2.76519965983766
H            0.50491758665909       -1.45542077033731       -1.02665416125602
H            5.02687943853319       -1.71000589015810        0.46246625660345
H            7.38676366581668       -1.91099498467749       -0.02786202006420
H            4.43381928202547        0.27300484425543       -3.26569940278578
H           13.00412858961082       -2.02054788918290       -1.04110488877459
H           15.08825460055620       -0.39893169713624        3.81184912267545
H           16.86336009519408       -0.88784924952789        5.42227063261490
H           18.98561246922657       -1.57368324201246        5.95892401998268
H           19.39668635786831       -2.64027559873340        7.29808799219573
H           17.93642840571283       -1.65354748462549        7.38798667881274
H           17.27613883224838       -5.22313949659986        6.75019223166828
H           18.88390188904954       -4.69643007134702        7.23613457287814
H           18.59110856368846       -5.16617813400525        5.56011084687038
H           16.38013265161885       -5.05857246080566        4.66562336809635
H           14.60015407197788       -4.55353329216846        3.06652045093824
H           10.36501535094701       -1.05437375217806        2.14406351987608
H            8.62237743474662       -0.50406831572687        0.53494611332478
