62
 energy: -12.678215516992 gnorm: 0.000421516398 xtb: 6.5.0 (97a52f5)
C            1.55158158125845       -1.28395862169292       -1.63222742737040
C            2.20038358744107       -0.49655096935024       -0.51282593901798
N            2.68727622623177       -1.36131929864943        0.58399853285579
C            1.68080917293518       -2.16416418068182        1.31115584495387
C            0.48480592511769       -1.36097199689893        1.78208550845127
C            4.07037533934871       -1.55446316926363        0.81524450681095
C            5.00000203827017       -0.52765739623793        0.59029119333772
C            6.32840070851756       -0.71374956031670        0.85702770816990
C            6.81035405614167       -1.91671141342222        1.38524953179952
C            5.90612860705822       -2.98702068312755        1.52596254700778
C            4.55564457921084       -2.77607113757786        1.26835643324323
O            6.31928615545967       -4.26425130970836        1.88685470193506
C            7.66925495650831       -4.54941902816100        1.98574451572275
O            8.04371687247300       -5.69182250169480        2.20212485400024
C            8.66113049425796       -3.45810078163450        1.85594187947562
C           10.06182998006986       -3.70737891741518        1.90205820659446
C           10.57471170248215       -5.10130621010382        1.99285686069355
N           10.98728338980433       -2.76676523926327        1.84305317973290
C           10.52721427389963       -1.50734338609559        1.81473150674505
C            9.19114740448412       -1.13152890256388        1.80556687501205
C            9.20220808570304        0.30398268460542        1.97775027154834
C            8.07464464570208        1.16444216365044        2.37079551044801
C            7.11927409428838        0.73073740388305        3.29046268664168
C            6.07819795826499        1.55113892917961        3.66090996542467
C            5.97778099147832        2.82311329628154        3.13312198553966
C            6.92750647661304        3.27620343667960        2.23880211743350
C            7.96993045135702        2.45851614234832        1.86487370347461
N           10.44617407684698        0.75688793922279        1.96078913000063
N           11.25026644044271       -0.30523707673741        1.86416010533009
C           12.68217232185332       -0.19133378176962        1.87604594553332
C           13.50101584072746       -1.30988699375783        1.83953568270871
C           14.87138153316590       -1.18003287018346        1.85277102312050
C           15.44349865648519        0.07553798789926        1.90298382390048
C           14.63970643260095        1.19776222983864        1.94022172255715
C           13.26852801476848        1.06389634307188        1.92697555140465
C            8.20058754487970       -2.14687654807864        1.70365296104787
H            1.23634464454351       -0.64093374337877       -2.45646016355180
H            0.67070359873579       -1.82256439730363       -1.28203311916212
H            2.24278492761776       -2.02568257089604       -2.03469045395282
H            1.51167212735637        0.24234625856429       -0.09208660777625
H            3.04183047765626        0.07896292462551       -0.90741815871229
H            2.17558791928748       -2.61801805639372        2.17570125337232
H            1.37389480672742       -2.99427473756691        0.66712033544116
H            0.80262192754837       -0.51167457164642        2.38834921518196
H           -0.19791499923998       -1.96194523885002        2.38622546565870
H           -0.08896743671576       -0.96504298761288        0.94375945230057
H            4.65732546401499        0.43161753530855        0.24704473368725
H            7.02506837671071        0.07602698469111        0.64534191591757
H            3.88848445509057       -3.60939252427467        1.37747548333307
H           10.18149014559654       -5.71102966981256        1.17957567535800
H           10.27463773684202       -5.56099137867165        2.93432238556710
H           11.66278338700444       -5.11613788943293        1.93585636331027
H            7.20437525498933       -0.25939782550393        3.70333167520218
H            5.33951738558532        1.19902693524172        4.36215721682177
H            5.16091492625023        3.46359687879909        3.42247443202664
H            6.85311427811573        4.27205353747356        1.83365241082622
H            8.71564481128349        2.80709749353386        1.17173084206659
H           13.04712651586937       -2.28178235401916        1.80366141606718
H           15.49712127734488       -2.05678851670416        1.82476700589148
H           16.51605403205556        0.17954573471937        1.91339224704129
H           15.08456954202261        2.17817939958545        1.98018911155976
H           12.63093380156714        1.92948619725468        1.95689666025901
