52
 energy: -11.780061454880 gnorm: 0.000508114720 xtb: 6.5.0 (97a52f5)
C            1.23426977961262        0.23881371417360        0.01756786038096
C            0.49208340760351        1.27776684809797        0.43690522567704
C           -0.94450026725019        1.28402125378058        0.43356906190099
N           -1.67193860994197        2.34483533237232        0.77104320462428
C           -2.97287117684235        1.96586581018493        0.64675628402167
C           -4.15930620156283        2.68266885479583        0.87271230574954
C           -5.35883672504026        2.05299668083786        0.67450768909321
C           -5.42027868405066        0.71461962919827        0.25434846485220
C           -4.28046046121503       -0.00892761785132        0.02574398703585
C           -3.04386401399261        0.61672021797706        0.22096118511881
N           -1.74255424091328        0.19603914825400        0.08560324350537
C            2.68254972783973        0.19201547680359        0.00622364245489
C            3.33548293411553       -0.86334954762909       -0.63794986331455
C            4.70612616005626       -0.93054737880193       -0.67107950130400
C            5.48555749495466        0.04639263652476       -0.05455553725470
C            6.93917861788616       -0.03678393199053       -0.10711301743514
N            7.60484567185442       -0.91112417983611       -0.86026514086531
C            8.91473677439504       -0.66865339762582       -0.64132279071553
C           10.07500342411854       -1.30853064422822       -1.20947542602652
C            9.95890801424541       -2.33718939998018       -2.13225938167722
C           11.10197593522445       -2.88574518817995       -2.63497568693740
C           12.32008737202473       -2.39631027672414       -2.20498514832812
N           12.47891454916183       -1.42566875301140       -1.33067229162939
C           11.36246469398502       -0.87207159590067       -0.82507809529930
C           11.51018059393833        0.21372014897041        0.14565952404903
N           12.75418634802578        0.58920902315951        0.49199715030013
C           12.85961749576811        1.56584759774493        1.36738831420616
C           11.79601119567883        2.22769520983865        1.95010423066905
C           10.52710537685946        1.86174447755717        1.61009537830052
C           10.36376832293970        0.83453380088912        0.69074619156421
C            9.06528371425859        0.37922873773967        0.27787811966007
N            7.80332112037474        0.77999144468409        0.61171094795796
C            4.83918302878124        1.09702408854440        0.59516242585914
C            3.46837458610679        1.17024924202374        0.62386646196440
H            0.72277852281226       -0.62804658311414       -0.35791273990574
H            0.97408431160286        2.17318384823715        0.77935387994745
H           -4.10629846544202        3.70722042055945        1.19408320917277
H           -6.27536223239322        2.59367594221628        0.84392311196995
H           -6.38204217420284        0.25071061274386        0.11040678726422
H           -4.31717403297054       -1.03460244834870       -0.29467668406405
H           -1.44778328734325       -0.73617079851669       -0.20097884282801
H            2.74795392461108       -1.62637391669522       -1.11897714352568
H            5.20007530660292       -1.74254765646733       -1.17534384738724
H            8.98533664396572       -2.68050782009091       -2.43571953366562
H           11.05604438398734       -3.68539027324940       -3.35587904138236
H           13.22518261515470       -2.82788722049751       -2.60478596951575
H           13.86399090922251        1.85641691531463        1.63603979966866
H           11.96648737128517        3.01916107337353        2.66133358408207
H            9.66886219698078        2.34851006069377        2.03874121268015
H            7.55818819226222        1.51139100476613        1.27795870256949
H            5.42674133030183        1.86217171377084        1.06974199492179
H            2.99478852454055        1.98655766287114        1.13890250178922
