55
 energy: -9.450467554837 gnorm: 0.000795402137 xtb: 6.5.0 (97a52f5)
C            1.71651557032031       -0.34213637845856       -0.60652422467336
C            1.73517726163789        1.14046500195564       -0.91886400597627
N            2.44711438764519        1.92723394003527        0.10735465218723
C            1.59755203096556        2.73964792868529        0.99948238647307
C            1.16574904939216        1.98265330700209        2.23781566739860
C            3.83934265864499        1.82393506105041        0.29283386888467
C            4.65457915350335        1.18088455990285       -0.65025887888003
C            6.00303070904711        1.06033451710287       -0.45286367520780
C            6.62552921975475        1.54993803613217        0.70162177682158
C            5.83394803476702        2.27214214454751        1.61663519775405
C            4.46256874904531        2.37373350172894        1.40628987320641
O            6.37177145998516        2.91573389731615        2.72433317460804
C            7.74210005520273        2.96918914687479        2.88672847726024
O            8.22677286991273        3.58674645773037        3.82272510912819
C            8.62033426765048        2.24642657307492        1.94255879700190
C           10.03709578040400        2.31477461623647        2.03888691714998
C           10.68088073454441        3.22563677786145        3.02438423257081
N           10.85644511734772        1.61984370388507        1.27450225959145
C           10.28745089518715        0.79036340114155        0.43499534853589
C            8.95071904740802        0.61334292795298        0.22945584583135
C            8.70664023380882       -0.52157746997420       -0.54054164020423
C            7.62696494001104       -1.29003796194111       -0.63462522475868
N           15.54915565852436        0.94325674048889       -1.67184360978700
N           14.76434699783131        1.18120810917518       -0.74961495416845
C           14.99097119372023        1.32236507378324        0.53287417589031
C           14.12314182971179        1.51789898637912        1.55653855657915
C           14.52789943985288        1.65601583455897        2.82250415275515
C           15.80371934166102        3.92177951857047       -1.84428291083249
C           14.83536282229858        3.72368378795110       -2.70600929592566
C           15.17393104435144        3.77684198849734       -4.04099282994138
C            8.04679449789715        1.44628992389513        0.95256510349786
H            1.20010621152603       -0.91695663527649       -1.37788868622887
H            1.21465401217466       -0.53677440343220        0.34175130665900
H            2.72706104439642       -0.74169609159430       -0.51684589470571
H            0.71326131983185        1.52294312650959       -1.00739296737996
H            2.20084552468697        1.33957374540852       -1.88907505119780
H            0.72660856456406        3.08441025064519        0.43238200428422
H            2.14357222057320        3.65233810769156        1.25834027031417
H            0.55426908516597        1.11882230544683        1.97540211527447
H            0.58056283723386        2.60628429337213        2.91653798287268
H            2.02701767611463        1.60675288013486        2.79102932111857
H            4.21639287762151        0.79269069329174       -1.55164523144468
H            6.60799332407739        0.62006803053567       -1.22384302409005
H            3.88939265749535        2.90712221704846        2.13888580966860
H           10.48968361031884        2.88680822807691        4.04262035204386
H           10.28726473944583        4.23750883571261        2.92794379113685
H           11.75858238942624        3.26360689036684        2.87086116637349
H            6.14780481052243        2.49462315871958        4.89845225229847
H            8.26218753075588       -2.36423069305339       -4.96353265947332
H            6.06233494733526        2.31617133604424       -4.99908654352886
H           13.06606013325618        1.54497626247336        1.33722611338572
H           13.88398870232994        1.79814881507786        3.64066649962552
H           14.36705406311299        4.52192239915273       -0.81305321120786
H           15.99290217609559        3.10875525270918       -4.21450517258218
H           15.47335450401767        4.77592733742831       -4.28528487524175
