52
 energy: -10.493002561407 gnorm: 0.000462428751 xtb: 6.5.0 (97a52f5)
C            2.56987042998318       -0.74545735729313        0.52602740524936
C            2.34825257026731       -0.90414436729902       -0.96413434681008
N            2.86592181891894        0.24170605993720       -1.73666669772758
C            1.84859502106393        1.12624835587432       -2.33730849009338
C            1.39264759622446        2.21575658013789       -1.38992313271580
C            4.24431294916064        0.51053345667445       -1.84395502138738
C            5.20410489218190       -0.44007648605311       -1.46638902302883
C            6.54180366491727       -0.18047772208755       -1.58790341916585
C            7.01105598641375        1.03493310822816       -2.10105747062711
C            6.06132662783058        2.02391185265655       -2.42345248574935
C            4.70536366597227        1.73480160540327       -2.31154202794583
O            6.42498998601146        3.30063337836230       -2.83191644123677
C            7.75805892612906        3.66320963956656       -2.86123306131642
O            8.07627686848378        4.81084878991323       -3.13262069128686
C            8.80102548939950        2.65187262244627       -2.58225243688412
C           10.18835466499552        2.97519666115347       -2.64880279976460
C           10.62285617300648        4.37116372067904       -2.92702733895732
N           11.16770943222789        2.10792170227886       -2.47257542067086
C           10.77993885516590        0.84383262707677       -2.24955333371289
C            9.46501116968598        0.40510662636942       -2.15557167489034
C            9.55671249492927       -1.01029978061638       -2.02080633392070
N           10.79808826647443       -1.41310279768068       -1.99943020048241
N           11.56238441321599       -0.31422618916095       -2.12192448946972
C           12.99683689590603       -0.36727820783449       -2.16164024083186
C           13.75923861320461        0.78163876939207       -2.30942791967613
C           15.13379694628959        0.71469410135371       -2.34138452150290
C           15.76608946964161       -0.50742550425607       -2.22644941009093
C           15.01860020189760       -1.65929190901991       -2.07937629812505
C           13.64299394414275       -1.58844793368520       -2.04724607527541
C            8.40904659944983        1.34801343084228       -2.27356738713035
H            2.19219276959582       -1.60039451151054        1.09040178325663
H            2.06953744765934        0.14717150921397        0.90270653876655
H            3.62905373404252       -0.63607797676932        0.76032628931405
H            1.28085208881222       -1.01743639613512       -1.17925641847549
H            2.81761693554638       -1.81661610474464       -1.34466592017507
H            1.00142613246051        0.51191471419761       -2.65979338408951
H            2.25965027705749        1.54659278951330       -3.26059388923502
H            0.91166058458848        1.79186531189114       -0.50774486680392
H            0.67901755338497        2.89535461091751       -1.86020700030487
H            2.23637189911485        2.81029565294466       -1.03809548036870
H            4.88345008989554       -1.39104444198412       -1.08158734720644
H            7.24430756657388       -0.90663829786339       -1.22890883663457
H            4.01113662212773        2.51039965198982       -2.56956906529391
H           10.24599922875280        5.05133207237637       -2.16329271989799
H           10.24568435421491        4.70662678740768       -3.89297482694107
H           11.71016108501841        4.44049138214409       -2.94159278210482
H            8.73750619523340       -1.70962403412296       -2.04365618998736
H           13.25787611999561        1.72667128525386       -2.39972742421640
H           15.71514075321579        1.61469088432037       -2.45652218155658
H           16.84203003383830       -0.56239607481621       -2.25154050548180
H           15.51081131835443       -2.61362808799571       -1.98938050117678
H           13.04926257731535       -2.47799555958569       -1.93290448616483
