59
 energy: -12.232302739465 gnorm: 0.000781816102 xtb: 6.5.0 (97a52f5)
C            3.31048623610366       -0.69048978236472       -0.23883243768546
C            2.32901924992676        0.22874496225064        0.45876919085595
N            2.46731893623859        0.19255887422511        1.92748045046832
C            1.37241435611688       -0.47321722258845        2.65866550144652
C            1.57657296663479       -1.96849620228013        2.77615273414153
C            3.61666500973042        0.67939076792569        2.58216197087395
C            4.54099733172287        1.49469243296658        1.91266766822463
C            5.65778270718160        1.96201302297494        2.55156735534343
C            5.91611744278208        1.64239002311863        3.88333972668865
C            5.00447624606222        0.82585489664657        4.57941435755031
C            3.87346813415488        0.36770781277908        3.91375412267550
O            5.18772404004476        0.45214021804560        5.91004444326900
C            6.31013677305185        0.88205919794751        6.58959750517307
O            6.51793651747995        0.57891844379360        7.75378600873195
C            7.29693041081928        1.73339671897602        5.90040213902311
C            8.41823239909999        2.15233355037010        6.57132408885293
C            9.31434836840851        2.95162516309154        5.87274929120683
C           10.56437229925299        3.59538602192699        6.18698616658236
C           11.31818690551145        3.49244127742550        7.43744110549639
C           12.20800398683082        4.50578520757339        7.78874199078254
C           12.94274592752608        4.42996630948550        8.95025845474352
C           12.81079956815965        3.33584564427866        9.78178836049137
C           11.94617449877632        2.31424198069194        9.44275000975211
C           11.20920837855673        2.38794241105354        8.28229874229814
N           10.97281453778666        4.31453270227534        5.15530467021158
N           10.07247172342899        4.15458095148029        4.17533367337504
C           10.20057742145717        4.78982357555740        2.89546329255964
C            9.25162320704016        4.61059920426273        1.90011490750388
C            9.39148751336629        5.22202028295774        0.67516415315481
C           10.48726677122665        6.02518176373131        0.42874436945271
C           11.43946218336349        6.21286866107359        1.41134180711109
C           11.29601299626092        5.59908350110433        2.63629335575555
C            9.01602071997524        3.31032265330747        4.56010087971865
N            7.93951692882327        2.91644116399917        3.87532993855721
C            7.10068521337322        2.12754719685315        4.55129022306715
H            3.20981022524480       -0.64999679563229       -1.32520383779460
H            3.16319640348867       -1.72614605237333        0.06916528003961
H            4.34060409460512       -0.43210692186561        0.00808079249762
H            1.30153307563645       -0.04437795040748        0.19731323971333
H            2.44485453131285        1.26543752960325        0.12743809527187
H            0.42926702667113       -0.24830735571488        2.14960834739396
H            1.27977091977804       -0.00461888241472        3.64347132749636
H            1.59463254013337       -2.43913657399405        1.79284802431674
H            0.78470051590629       -2.44624629036781        3.35627242161923
H            2.52699143648847       -2.19984076284396        3.25812885715536
H            4.36325915640673        1.76819870667332        0.88866896294623
H            6.35867461056133        2.58840871183471        2.02900152815188
H            3.19833068152580       -0.25959546649207        4.46218008316527
H            8.56715191626313        1.88836449308802        7.60109016316748
H           12.31046659346964        5.35306326642959        7.13336754591774
H           13.62333553017104        5.22412062083492        9.20975623677812
H           13.38716359751725        3.27543993325130       10.69026998321681
H           11.85343813398557        1.45391262663421       10.08527488003459
H           10.57247140249337        1.56900617405526        8.00168254149856
H            8.40367863476586        3.98476846504245        2.10235905075407
H            8.64740349701839        5.07436827434253       -0.09016482860604
H           10.59935876261355        6.50427767703944       -0.52985764710291
H           12.29502392269215        6.83928444644891        1.22010509121762
H           12.03026488497854        5.73583873987953        3.41030364369962
