52
 energy: -10.470398751052 gnorm: 0.000635044046 xtb: 6.5.0 (97a52f5)
C            3.13104671292438       -0.00028240010637       -0.44669370007971
C            2.26173656811636       -0.31285209870153        0.75381502113175
N            2.52167444938583       -1.65627570708805        1.30593308735684
C            1.47690252477885       -2.66793461871170        1.05576871902799
C            1.68803324580485       -3.41237231608921       -0.24530298974077
C            3.73195467328844       -1.97745934802527        1.95295877090640
C            4.63875477442401       -0.97791245082001        2.33466007192783
C            5.81354731132692       -1.29642449650051        2.96188039876820
C            6.14799001234939       -2.62000185607524        3.24156255634127
C            5.25529876729737       -3.64321726413043        2.87048476127821
C            4.06755126623255       -3.29771536902626        2.23694044140508
O            5.51002941273404       -4.99298006257603        3.10924712239851
C            6.67988952355618       -5.36386203282291        3.74131196218045
O            6.94791684443936       -6.53189178649429        3.97341628857843
C            7.64451014918552       -4.32837633406692        4.15419392361179
C            8.80213500199088       -4.69823564588132        4.79027482378219
C            9.67770935365574       -3.68162327186685        5.15541334582782
C           10.94218703076849       -3.61626262540064        5.84378689018876
C           11.73020802802887       -4.74681916699356        6.33782734411651
C           12.60653191903062       -4.56107754728949        7.40541811641543
C           13.36070833767997       -5.60543053205999        7.89054591473722
C           13.26181527850778       -6.85587266599498        7.31378598705363
C           12.41104432954030       -7.05560252373847        6.24479087597468
C           11.65438225298570       -6.01339752040774        5.75843109329938
N           11.30975179165901       -2.35048901916327        5.99562178249153
N           10.36470408651516       -1.60739953689554        5.42295980071282
C           10.39027398166728       -0.15161607997671        5.38491642028749
C            9.32242397698314       -2.36209578206886        4.88069365921998
N            8.20607214651752       -1.96276629355701        4.26445747698271
C            7.38588052896489       -2.95274129034517        3.90714887314728
H            2.94290301607569        1.00100050795447       -0.83928752737039
H            2.95250111516638       -0.71115755717856       -1.25394003834551
H            4.19068872779468       -0.06482023027001       -0.19800930917601
H            1.20302707237541       -0.24446280286958        0.48379556562933
H            2.40291085024222        0.42099798196839        1.55341252375921
H            0.50199272240824       -2.16964923749785        1.06388203777480
H            1.44984970128469       -3.35300908438846        1.90896356893389
H            1.63234269188716       -2.73521995492102       -1.09804239608067
H            0.94149346725427       -4.19462632974610       -0.39600182351413
H            2.67202700468435       -3.88115607866393       -0.27454050487246
H            4.40429631121755        0.05346548011602        2.14482463283115
H            6.50096176567555       -0.52207113611054        3.25337835444728
H            3.40859737718395       -4.09534311519928        1.95545212692149
H            8.99457057166191       -5.72986868016186        5.01608874514800
H           12.68011804796213       -3.58363237915494        7.84935250709367
H           14.02922665957480       -5.44693024504941        8.72080056433461
H           13.85222587677639       -7.67350598072738        7.69334878999342
H           12.34258606272786       -8.02894263077914        5.78715739799524
H           11.02545449465743       -6.16474563530985        4.90012849275278
H           11.23313919199289        0.21670950648606        5.96421052894228
H            9.46971201403343        0.24644279242840        5.80486058770999
H           10.48884097702824        0.19032245194346        4.35753633577338
