49
 energy: -10.039163197665 gnorm: 0.000319823352 xtb: 6.5.0 (97a52f5)
C            2.93512317003484       -0.07950670465590       -0.18876986447786
C            2.17358355440973        1.05431269235939        0.46604952103686
N            2.51209409013493        1.20846875938590        1.89357398803423
C            1.45072381377030        0.84118316831802        2.85046906183614
C            1.44419103169116       -0.63760946239522        3.17404093008453
C            3.79246181988905        1.61753763078308        2.32037203777389
C            4.69311926869117        2.22852671995035        1.43594544088322
C            5.93100533473896        2.63187927944000        1.86034959909650
C            6.33985104246701        2.44389209636993        3.17961838617438
C            5.45838861042996        1.82340186484318        4.08539537845699
C            4.20328544239060        1.43104817535029        3.63631794729052
O            5.78770772687288        1.57966503447660        5.41750452043162
C            7.03009067693560        1.95015067551676        5.88984300199823
O            7.36994393170025        1.74591938137596        7.04415257861803
C            7.98429145263930        2.61653807896192        4.98465189534165
C            9.21406609022206        2.99653151673768        5.45757205271006
C           10.06245475057353        3.63129935108463        4.55808082496000
C           11.37529842911730        4.17081485049065        4.64109423810659
N           11.74334898306010        4.68743736807348        3.50121402889411
N           10.71663337419463        4.51390783533133        2.64164227186870
C           10.75326719419009        4.97724436291908        1.28534267651322
C            9.68297407346781        4.77771403107488        0.42654980943785
C            9.72788187145277        5.23424816921755       -0.87108331255360
C           10.84860325446374        5.89888673880209       -1.32820743338867
C           11.92129015014979        6.10437828854531       -0.48290828261100
C           11.87303370429188        5.64593257186930        0.81538205051366
C            9.63528380192865        3.85178819991522        3.24941622290544
N            8.44807662787873        3.48743199577479        2.75610661241186
C            7.64363336742719        2.87436578125571        3.62782391637766
H            2.68272791880698       -0.18723037685043       -1.24548664814239
H            2.71932366889273       -1.02923816601315        0.30165084348301
H            4.01224346398091        0.07496527761082       -0.11947587034414
H            1.09504374194966        0.88749269250872        0.37880432410775
H            2.36058270845813        2.00749790359153       -0.03802247937970
H            0.48706202727266        1.15248081987534        2.43375881792671
H            1.57680532369938        1.44645570980918        3.75373923322848
H            1.24173834881445       -1.23257142151272        2.28292424609786
H            0.68668496388916       -0.89064805364804        3.91848155882164
H            2.41136411524117       -0.96061576980555        3.56028124752441
H            4.40156964787252        2.39901455470117        0.41569234380045
H            6.61140972885656        3.10576861332599        1.17525880565488
H            3.55247561481502        0.95327518384735        4.34219954636547
H            9.50242906420821        2.81490426595602        6.47646418015797
H           11.99590225521457        4.16327607277340        5.52361403472911
H            8.81617543745172        4.26216283095527        0.79420335173219
H            8.88957426410000        5.07383846751384       -1.52887999071656
H           10.88592055636340        6.25819873182597       -2.34351619316107
H           12.79584357753492        6.62393652665469       -0.83834521968519
H           12.70007693336784        5.80178768570380        1.48522376907971
