45
 energy: -8.768080192384 gnorm: 0.000438649826 xtb: 6.5.0 (97a52f5)
C            1.64387641008030        0.32121612832787       -0.90844170457210
C            2.47767886899751       -0.07210530308383        0.29514946938793
N            3.04771799311712       -1.43287820716260        0.18318443167059
C            2.10347264836349       -2.55493672964914       -0.01364359079121
C            1.03958966879821       -2.63200776359660        1.06383364393382
C            4.44126710448515       -1.65188738324603        0.24699538003502
C            5.05065368250365       -2.67465447924817       -0.50874495127711
C            6.39644800975759       -2.88553021084750       -0.45037232446932
C            7.21457928404993       -2.09147897161858        0.37111272205826
C            8.60374256277289       -2.28871021651733        0.46998670774525
C            9.37346309240628       -1.52198787492131        1.29110951214296
C           10.81619486943163       -1.76980272141865        1.40616248539737
C           11.54858315075987       -2.10365081211799        0.28830557040936
C           12.91307274610713       -2.35423650302487        0.37727879259592
S           13.93037661466002       -2.76415475446374       -1.00845785849100
C           12.80750139214562       -2.68304766523906       -2.36635090876331
C           13.52568140011473       -2.28292470257380        1.60532388994977
C           14.88812030974661       -2.54535303172042        1.72105184848575
N           16.02588165011829       -2.77609529634591        1.76895329464863
C           12.75093529927935       -1.93552465843491        2.77841873297474
O           13.31014379153318       -1.87711538815379        3.87085789473713
O           11.40238394750644       -1.68031741039452        2.64407705913317
C            8.74161429297228       -0.44740023988716        2.06609562095685
O            9.43371658894316        0.28418376100100        2.75701081556865
O            7.37648310434358       -0.26103188514767        1.98125158479114
C            6.62542200964402       -1.06624020458546        1.14222092324835
C            5.25268743658253       -0.86499184171124        1.05783944721933
H            1.28533229799963        1.35001086949708       -0.83769838432081
H            0.76952298806039       -0.32067567782906       -1.01751898096147
H            2.22644985717661        0.23331766694511       -1.82646289584350
H            1.89806221921098       -0.01477213388316        1.22149040947551
H            3.30332344695776        0.63586751939646        0.41256331235887
H            2.67931025876080       -3.48507119374916       -0.02238027443071
H            1.66016715990896       -2.46395093759076       -1.00990458965195
H            1.49647149700672       -2.68278863143490        2.05325747513177
H            0.40197663752327       -3.51047272805913        0.94547107479294
H            0.39140407491311       -1.75547442345247        1.05063632008865
H            4.44679250334949       -3.26677842289518       -1.17307480606843
H            6.84864931302919       -3.66512639897796       -1.03899724765956
H            9.05421431388231       -3.08941372791836       -0.08761432162227
H           11.05420385584794       -2.14582854467675       -0.66331683163637
H           13.34285048374602       -2.89184518111107       -3.28954653881009
H           12.37178291770186       -1.68973345911837       -2.44276451206725
H           12.01853935644894       -3.42278137617854       -2.25496773423063
H            4.81879888925378       -0.10532885317899        1.67947003673256
