102
 energy: -20.615821051441 gnorm: 0.000629527874 xtb: 6.5.0 (97a52f5)
C            2.24533896301404       -0.23574834323142       -0.95871423489433
C            2.05444422802814        1.15823093434889       -0.39998546734772
N            2.72748539317161        1.33342682184972        0.90273900926507
C            1.95923418681023        1.06344589642703        2.14302661613641
C            0.46153660253025        0.88033782067742        1.98623268121593
C            4.10816842246263        1.57107833988453        0.97230979640546
C            4.77212577521019        1.63983319963215        2.21690968931653
C            6.11337741428440        1.87352403988436        2.29199265036169
C            6.88035367631754        2.05170801359225        1.12882435355151
C            8.26597919906058        2.30339963542340        1.16907057094514
C            8.99789187354131        2.48073403267388        0.03568798420431
C           10.43727181641927        2.76109344125419        0.11915120257782
C           11.19807459634493        2.31486783577538        1.20618248175612
C           12.53318384132129        2.60917206363094        1.30927482537101
C           13.18429991531635        3.36920353873642        0.32946656424231
C           14.62520655220574        3.70014040874124        0.44661112123688
C           15.60254669731288        2.66770650679383        0.48550216849123
C           15.23467744137444        1.30504077734310        0.38552169951114
C           16.16513792272160        0.31218075044908        0.43933746708451
C           17.51838714622118        0.62438576453528        0.59627280420267
C           17.91654008562572        1.92413077259617        0.67764580572277
C           16.98502388912297        2.98681335080238        0.60791297083377
C           17.40776532206458        4.34258528244739        0.67791522548951
C           18.84713002085233        4.67905511089225        0.80304105357356
C           19.76409623829146        4.33438843037302       -0.19814584265281
C           21.08974601323645        4.66792276094609       -0.08929960334115
C           21.57551447091172        5.35916647206177        1.02685298183089
C           22.98664756002752        5.75607030982160        1.12093620632617
C           23.71072556972443        5.99881943491673       -0.00539116106855
C           25.05678613097957        6.41225824790012        0.05005002791411
C           25.81197531308559        6.67899094329758       -1.10436864163708
C           27.10874905906374        7.09097051698136       -1.01302456502477
C           27.73409713840771        7.26342430452576        0.24039164164669
N           29.06342776414039        7.69295336936530        0.33539435237387
C           29.90200077845050        7.95003425613900       -0.85029466648655
C           29.66974334638047        9.33067681172682       -1.42683919667683
C           29.72871051310607        7.93620848713607        1.62934091339863
C           30.27265285924708        6.66279245930775        2.24144413010433
C           26.98292294682571        6.99676124774838        1.38033056663963
C           25.65799531278094        6.57650718210371        1.31446140949427
O           24.96277507040985        6.33186717876784        2.48862503425279
C           23.64301224131284        5.91770696812977        2.43064158635491
O           23.01531785919376        5.67745120158713        3.45355282756553
C           20.66061630749332        5.68625669234385        2.03118907811829
C           19.33382067334283        5.36125834720955        1.92493747514729
C           16.43128029027769        5.37506723087910        0.63027732361366
C           16.80539972410836        6.73918157238493        0.66904651543413
C           15.87399259280097        7.73206099196191        0.64151988191538
C           14.51383113135351        7.41812755635000        0.57431402698913
C           14.11283401869810        6.11796482234729        0.51744840469374
C           15.04786937501880        5.05584443574239        0.52347415845405
C           12.42685001357235        3.80741487279583       -0.76393174074965
C           11.09342185953201        3.50725327389168       -0.86343997510037
C            8.31244088351852        2.39793586592377       -1.26652407933337
O            8.95625346998896        2.54127061807966       -2.29749083386872
O            6.95023954570751        2.15248898965235       -1.30883658865413
C            6.24466069266932        1.98443526685493       -0.12710959432323
C            4.87479813620501        1.74409421206247       -0.17648267305986
H            1.75290437121706       -0.36309862187481       -1.92471121246593
H            1.84342635357419       -0.98758824652457       -0.27858989358130
H            3.30323923374930       -0.46443114210313       -1.09286299259392
H            0.99207092823965        1.39242115488789       -0.29343804077388
H            2.42870124576546        1.91997261649360       -1.09070217049955
H            2.15216054047484        1.89370356133272        2.83051946581816
H            2.39795115171045        0.17246011725884        2.60516905267870
H           -0.00646496679122        1.77441470370816        1.57123719888153
H           -0.02366731331056        0.67990794766640        2.94423604924709
H            0.22801334751933        0.04323214868232        1.32710017602578
H            4.21325863660881        1.50203365384197        3.12440621539584
H            6.60215158475559        1.92430771596601        3.24971008820337
H            8.73954886700039        2.38732148644080        2.12964785509310
H           10.72991378383367        1.71310132692763        1.96502871263035
H           13.09841676551815        2.26775916540075        2.15934826837100
H           14.19704608137845        1.05461785307177        0.25645715270050
H           15.86007830837978       -0.71870657575004        0.36461854606958
H           18.24598611954197       -0.16862841941330        0.65047671272759
H           18.95912056148389        2.15436740848818        0.80458933529548
H           19.40652622490541        3.81296666066115       -1.06929932083338
H           21.77375848252404        4.37785521709767       -0.86731406002599
H           23.24432533133357        5.91159839427975       -0.96922343037463
H           25.34909238101616        6.55580165832356       -2.06833087246269
H           27.66027189637459        7.29558495386909       -1.91224360212890
H           29.71220045511392        7.16679839975508       -1.59064991427687
H           30.95148009747392        7.82186474378026       -0.56422340466484
H           28.62856038335020        9.46560482928374       -1.72082941794205
H           30.29012097884953        9.51962702038537       -2.30489877388923
H           29.89288839574981       10.10276145097236       -0.68964735937136
H           29.02075040151345        8.43484111751868        2.29871001373404
H           30.53216729504978        8.66414715193499        1.47352051177524
H           29.47941089993145        5.93157815721656        2.40072071685881
H           30.75770460097898        6.84322847332008        3.20285521166081
H           31.00568842386222        6.19617181642452        1.58196339037491
H           27.41800463913398        7.10814238374876        2.35393812830185
H           21.01737170207480        6.20372161551802        2.90398385009036
H           18.64731834462438        5.61925058839427        2.71286204921042
H           17.84980077466529        6.99065015086755        0.71464995015668
H           16.18295340719173        8.76391776525947        0.67512656186558
H           13.78289368396141        8.20992283312927        0.56476325857947
H           13.06371189314956        5.88691407276652        0.47385726668968
H           12.91354416931091        4.37697682438024       -1.53682637820315
H           10.53005326860289        3.84561121948325       -1.71476695968699
H            4.42176038743164        1.69073332068611       -1.14657635421752
