80
 energy: -15.668096497961 gnorm: 0.000573381289 xtb: 6.5.0 (97a52f5)
C            0.94014195438071       -0.41739829684006        0.12219758100518
C            2.36448639487945       -0.56327290567891       -0.37984696133123
N            3.10236768220118        0.69490270739999       -0.65012622698648
C            2.33708670944065        1.95448400146886       -0.74568062794763
C            1.90058621715621        2.24820425397450       -2.16568130892268
C            4.45765037806416        0.64635143815323       -1.01926489013783
C            5.17659238576314        1.81542294787241       -1.34563396416209
C            6.49389386974222        1.76162229774280       -1.69747495225868
C            7.17713172136438        0.53631213909702       -1.74861806347663
C            8.53781226556819        0.44218595885301       -2.10639270826241
C            9.18426850312784       -0.75333462309138       -2.15947743887974
C           10.60321336623914       -0.81565976088973       -2.54009010208695
C           11.46911947183715        0.24911174891080       -2.27404184530671
C           12.78957506433962        0.20307005033484       -2.64888186387381
C           13.31242502042171       -0.90792300151148       -3.31279209182965
C           14.73242970685012       -0.95757768481538       -3.71498958521014
C           15.72773774206196       -0.39698710050295       -2.91297699360188
C           17.04938415141120       -0.44919556490459       -3.28232317780815
C           17.44406072385252       -1.06185995100361       -4.47507989416957
C           18.86332858085957       -1.14601991297813       -4.84993969936290
C           19.82399506602365       -1.21689828078398       -3.88996919762387
C           21.19317367300604       -1.30705519374461       -4.21389606585180
C           22.19462048259536       -1.38881580556284       -3.23319197164459
C           23.51029670978432       -1.47972184725213       -3.58254014214357
C           23.90677690260347       -1.49427043627196       -4.93535105507881
N           25.25922114706458       -1.59324684509748       -5.29399560302383
C           26.34178302425574       -1.65976346193264       -4.29490673267426
C           26.53981499034809       -3.06254641106955       -3.76060436369913
C           25.70420318887992       -1.65433861754427       -6.69878190447338
C           25.80361735198005       -0.28044330989039       -7.32707558301573
C           22.91124563531783       -1.41302987382694       -5.90314047419696
C           21.56244333235318       -1.32250815627199       -5.57363075515678
O           20.61658223063759       -1.25177519397305       -6.58600533824734
C           19.27335938678316       -1.16163979772612       -6.26410641286162
O           18.41997372084421       -1.08837167089744       -7.13836858003071
C           16.44430072241998       -1.61089285946100       -5.27941090305983
C           15.12305769229892       -1.56541683130974       -4.90911230897954
C           12.45113542219592       -1.97377467851795       -3.57722913184971
C           11.13302808609215       -1.92774956053106       -3.19640470250684
C            8.43408888760353       -1.97785065901399       -1.83282567513031
O            9.00402295426741       -3.06047693296894       -1.86696997539614
O            7.09748823410884       -1.88949851726274       -1.48448485403204
C            6.48048840684368       -0.64809692700867       -1.43867698580421
C            5.13863928631051       -0.56569705208889       -1.08035817610392
H            0.47567713307148       -1.38829059750073        0.30861685446728
H            0.31187365350859        0.10384393097235       -0.60130615924046
H            0.90587341214726        0.14021267206252        1.05953807435388
H            2.37815394199782       -1.15071180827033       -1.30434808299174
H            2.94898251283389       -1.12816348567853        0.35407083217184
H            2.94741754627301        2.76651674050032       -0.33878268348656
H            1.47500324656215        1.90648148005390       -0.07528219887465
H            2.76003261086830        2.32469490886161       -2.83272855914203
H            1.33791875795371        3.18119906159662       -2.23927980464176
H            1.26950189942005        1.44715091450684       -2.55331798999204
H            4.68194722302518        2.76873107702739       -1.32366883345604
H            7.02681700605741        2.66426377621766       -1.94220504301633
H            9.06025533508251        1.34391789387726       -2.36732945457844
H           11.09771420135248        1.11053221763915       -1.74739899719940
H           13.43339473655535        1.04078029408773       -2.44431270200152
H           15.45004230749854        0.06658511212991       -1.98242628218028
H           17.79423644625994        0.00538932158748       -2.65316503352147
H           19.54224659560057       -1.23361117836485       -2.85336716256412
H           21.90846921164438       -1.38078408959666       -2.19556652103495
H           24.25524554426132       -1.54825794433973       -2.81124219019541
H           26.12199682363039       -0.94953500904169       -3.49189948226044
H           27.26221097961719       -1.28842407085642       -4.75802843869874
H           25.62723199093296       -3.44078507170219       -3.29871923225433
H           27.33524003876333       -3.10998385073164       -3.01428664327520
H           26.79708932887886       -3.75260760101709       -4.56528436170403
H           25.02101640524222       -2.30372457079926       -7.25484213580504
H           26.67215077380560       -2.16572409586485       -6.73232731408337
H           24.84346720839621        0.23556275045375       -7.30033741109892
H           26.12789884268095       -0.32696505347686       -8.36846860879307
H           26.51455290799193        0.34450548674971       -6.78511351051320
H           23.16632037972553       -1.41574120726761       -6.94456491423515
H           16.72713716834075       -2.07226337038033       -6.20914011912199
H           14.37080383563349       -1.98682105681431       -5.55297583916885
H           12.83746907207466       -2.85041072973745       -4.06747184119859
H           10.48690969721901       -2.76446102050777       -3.39536512031990
H            4.63272278078598       -1.48444164796205       -0.85721138316141
