66
 energy: -13.529130319963 gnorm: 0.000525596478 xtb: 6.5.0 (97a52f5)
C            1.85061208423922       -0.56411893419144        0.91940629513724
C            2.33253468133286       -0.14283148670989       -0.45364855035999
N            2.94312014216537        1.20513136916155       -0.45472917756332
C            2.07927054035230        2.33527012544782       -0.04869263994570
C            0.73415447664338        2.35710171580983       -0.74751600238709
C            4.32601294538301        1.38758556786591       -0.66405056401039
C            5.02511117379795        2.43428794842116       -0.02702005501802
C            6.36226856346064        2.61220608694520       -0.22773921324421
C            7.08237433824772        1.75922506164409       -1.08016421262324
C            8.46221178642402        1.92031102391861       -1.32053393686763
C            9.14565777590950        1.09508305679601       -2.15743175808828
C           10.58140006119061        1.30221896409692       -2.39856692673477
C           11.39924708783277        1.89137849063721       -1.43041874692734
C           12.73339981976392        2.11631669536239       -1.66708164730185
C           13.31836470149828        1.76524090154133       -2.88416230643214
C           14.75183137083575        2.01092697730429       -3.14131282117351
C           15.70026320992666        1.87399415448109       -2.12726752042407
C           17.03383233889396        2.09803554077350       -2.36882162856641
C           17.48652390581298        2.47072421558842       -3.63669257196999
C           18.91928455475277        2.67905089889170       -3.90167579513094
C           19.85429360612800        1.98789862323722       -3.20488379793921
C           21.24048559626837        2.15789214544924       -3.44483282731249
C           22.21515917483888        1.44857880053428       -2.73117028238887
C           23.54636933526319        1.63530874500233       -2.99509131610075
C           23.94246472146766        2.53373954937130       -3.97831835759538
C           23.00619640195955        3.23693743119422       -4.68843114754995
C           21.63904850771692        3.06751696349175       -4.44095633006484
O           20.71778273672757        3.79338462385489       -5.17773919653707
C           19.36609705550599        3.63303261776813       -4.93361994290909
O           18.53305052823706        4.27417873146803       -5.55856815409918
C           16.53368824314727        2.61577635551854       -4.64472029907275
C           15.20052999435458        2.38995411706593       -4.40665294509362
C           12.50651417162967        1.16987285222004       -3.84983823100765
C           11.17422383501615        0.94276148786118       -3.60942265793945
C            8.41637506790737        0.00248413547723       -2.82317506893625
O            9.01951817589675       -0.75603806087670       -3.56994378588509
O            7.06173848890229       -0.15676174169767       -2.59281727403297
C            6.40552396828834        0.70844876262291       -1.73166325199907
C            5.04250962884883        0.54382886961467       -1.50644602458482
H            1.43988614667717       -1.57571823237104        0.91671579423891
H            1.07341592718574        0.10344172204958        1.29204635945587
H            2.66849832341193       -0.53953526804161        1.64072467674624
H            1.51967389740494       -0.15581590660198       -1.18606649192595
H            3.06884087012217       -0.86325411152147       -0.81943547105547
H            2.61539690362303        3.26332816137567       -0.27035477109953
H            1.96271824196703        2.30371989001699        1.03913794783904
H            0.86023615307051        2.34728868875228       -1.83097777785540
H            0.15479028567030        3.24564569803557       -0.48881501761741
H            0.12930703899825        1.48919126826164       -0.48402271536235
H            4.49976261068768        3.07654145922961        0.65666605590525
H            6.88410786270398        3.41010281155362        0.27175664488339
H            8.96930956953214        2.74057261051928       -0.84736789403362
H           10.97985579952758        2.15511433180958       -0.47561281286093
H           13.33896040012675        2.58608614798279       -0.91171136727323
H           15.37719567196473        1.57144415214239       -1.14641257871464
H           17.74140715650428        2.00308281624993       -1.56412522588668
H           19.54827056947608        1.26871935964788       -2.46792161393849
H           21.90428720087220        0.75302679571356       -1.97090305258248
H           24.28873093665899        1.08526019178169       -2.44074530875598
H           24.99103222377934        2.67652179421794       -4.18181928993896
H           23.30409800673558        3.93374141518712       -5.45158042138070
H           16.86146675019133        2.92080404757412       -5.62289389063564
H           14.48398317506111        2.52555684496459       -5.19795014286656
H           12.94117442028342        0.86901201241308       -4.78713664677592
H           10.56603048374410        0.47061057238614       -4.36055581492985
H            4.53977857747759       -0.23562265624614       -2.04509850291573
