120
 energy: -24.794760629823 gnorm: 0.000153333630 xtb: 6.5.0 (97a52f5)
C            0.60959064375721        0.35774633219149       -0.16997814937052
C            0.38861125187698        1.50849210364173       -1.12919963257076
N            0.67930860214364        2.81696212350392       -0.50914121448429
C           -0.42535175383459        3.55129108980437        0.15492787802578
C           -1.82544780625680        3.00795425152877       -0.05988595056319
C            2.00093202455944        3.27236397130671       -0.37890633674083
C            2.29261897445772        4.48426526231761        0.28366019087126
C            3.57642393547102        4.92438260667433        0.42330608209318
C            4.65301909692717        4.18067284220730       -0.08644222797388
C            5.99399693284397        4.59649691688248        0.04959621929871
C            7.02701596783362        3.85657313699310       -0.43437629580137
C            8.41705307308473        4.30140501056443       -0.24909029866573
C            8.78625919239374        5.09047273620959        0.84427791091493
C           10.09140204275598        5.47572414334889        1.03701720135590
C           11.09416382924679        5.09233826284598        0.14635298527073
C           12.51381700558485        5.42052071953383        0.39578025056276
C           13.03425051040868        5.41985556112657        1.69739113781727
C           14.37562713990628        5.56636461902812        1.91699414227513
C           15.27864364715351        5.73465307381360        0.85444661498676
C           16.71788597142979        5.74313000753362        1.06136584055522
C           17.28450384087494        5.82768907195904        2.34326088944433
C           18.64178007286977        5.84976166698780        2.52277731551757
C           19.48817638011517        5.80622150951275        1.42537244231342
C           18.96688970493313        5.71904610655577        0.16339006794951
C           17.58055445613595        5.64715934245941       -0.05477820397987
C           17.01975451778882        5.59569435954284       -1.39874627276859
C           17.78684328636678        5.15248105124762       -2.55718906172280
C           18.87396879552547        4.28007995954628       -2.41587377117953
C           19.56559198159712        3.77269901307812       -3.50019909027893
C           20.61493102577117        2.75109824092437       -3.30150014925482
C           21.41514131139252        2.75172600521688       -2.15817009347582
C           22.29771535642234        1.72849612365372       -1.90963569079169
C           22.42496788213201        0.65305762720148       -2.79329865460249
C           23.26430281762804       -0.50921514686984       -2.46416352063922
C           23.44052540505683       -0.87929750569299       -1.16785095365853
C           24.15216666539399       -2.04506735684352       -0.81813516718804
C           24.31052825401941       -2.45784607708535        0.51446204197371
C           24.96380098848515       -3.61663150193159        0.81571188003850
C           25.50075394494080       -4.43923903357154       -0.19787427006970
N           26.13990054906535       -5.65256981245926        0.10418057971211
C           26.15997810916493       -6.17015153051920        1.48705947274162
C           24.84659273843815       -6.81724295390602        1.87383504256019
C           26.57939967091587       -6.54891518368271       -0.99325418745687
C           27.30032520447336       -7.81889129512361       -0.58235145623041
C           25.35199367735156       -4.01707093138359       -1.51586418721001
C           24.68776634971302       -2.84059590158900       -1.85027069037833
O           24.56113083114540       -2.48352917994684       -3.18503263510315
C           23.86956439082478       -1.33270990727950       -3.52445335285402
O           23.75454737271080       -0.98734866125700       -4.69332331236064
C           21.65688012811747        0.68095020297651       -3.95798362048507
C           20.77120390476588        1.70044634672780       -4.20606588885607
C           19.16476803893063        4.17542790245371       -4.78183566972400
C           18.07757110790976        4.98761156271996       -4.95392288909951
C           17.33334139140098        5.46025368145353       -3.85965749813929
C           16.09045287445934        6.19674088945195       -4.02625748801171
C           15.67815491620494        6.68299440354392       -5.27712374102843
C           14.51550879132203        7.39227716444132       -5.41830274450046
C           13.72648093230248        7.65981947558357       -4.30997142618447
C           14.09767765455080        7.19466428356279       -3.07793233552781
C           15.25883962756464        6.42269829167094       -2.90399725493402
C           15.67931543666947        5.96170302528734       -1.58661857187437
C           14.76272225738214        5.83476905558439       -0.45812586376673
C           13.38844422544837        5.63874501919570       -0.65282507049070
C           10.72557095098385        4.32200831749059       -0.95661903514475
C            9.42126382727175        3.93882211639462       -1.14688163221841
C            6.72584711027151        2.58969711035097       -1.12485255859444
O            7.64303642248375        1.90132527149568       -1.55314364528490
O            5.40996017120179        2.18687899620073       -1.27424259199058
C            4.38996293969767        2.96772719254793       -0.75283538399331
C            3.07158826719100        2.54302632689293       -0.88611447032595
H            0.39833946682515       -0.60892730754918       -0.63165991231971
H           -0.02887067136454        0.45288248454423        0.70910650524491
H            1.63919818728698        0.33597143500136        0.18901852128941
H           -0.63662977793838        1.50773580733203       -1.50844069311184
H            1.00644612223819        1.40429426329133       -2.02647403389311
H           -0.38097027967265        4.58829272164196       -0.19400417669199
H           -0.19558267251177        3.57680704997866        1.22560008078951
H           -2.10155496439621        3.02609056285402       -1.11514573502869
H           -2.57355150392998        3.59499003554185        0.47722714190137
H           -1.91333826643551        1.97902043343943        0.29088194118948
H            1.49011936250964        5.07167162514058        0.69089521590350
H            3.77968450396322        5.85012256151097        0.93354196454119
H            6.19005442641516        5.53313521415260        0.53777772114470
H            8.04049688974497        5.37168330319582        1.56672241735154
H           10.35149277246434        6.07916483356054        1.88925865961241
H           12.37078716404596        5.24129318681881        2.52568528595866
H           14.74492464164325        5.50191090936570        2.92398032967085
H           16.64619966377104        5.89907341906228        3.20476492728593
H           19.05461870159910        5.92026320778628        3.51590238028351
H           20.55535526879376        5.85673567778890        1.56774612595652
H           19.63027300759434        5.76523734128126       -0.68188273571586
H           19.11584005845243        3.90672221398097       -1.43829169254717
H           21.32839621152051        3.56461083137912       -1.45839029451511
H           22.90201632120577        1.75262077272747       -1.01969973044910
H           22.98248731023805       -0.30664821997017       -0.38261720793125
H           23.89792009908234       -1.84807879854501        1.29975972899696
H           25.05779780776964       -3.90924024282307        1.84508571715938
H           26.41447138961437       -5.34798208180763        2.16279034434224
H           26.98864752892426       -6.87430416107757        1.59827052446081
H           24.01962757567197       -6.11142792774532        1.78727825289483
H           24.85820523569292       -7.19151942015095        2.89950459821014
H           24.61540758387145       -7.65618311331073        1.21629730989013
H           27.22798674998052       -5.96081178905659       -1.65098774801502
H           25.68956108703814       -6.79829465935190       -1.58127307507689
H           28.21440819943348       -7.59578887834087       -0.03029734686750
H           27.58661212994683       -8.41939195911193       -1.44850728007731
H           26.67313949627785       -8.44836814833446        0.05008910585083
H           25.74060186080751       -4.60856034025764       -2.32143835111771
H           21.75181364361315       -0.13113317455292       -4.65708154830406
H           20.15594010864999        1.67106506950711       -5.08834283503985
H           19.70785479863895        3.81423226947293       -5.63790378657085
H           17.76739857669637        5.23178155373003       -5.95328529459338
H           16.29314952631087        6.51731903886677       -6.14260827910374
H           14.22123585187616        7.76062474627435       -6.38754387756020
H           12.82928314103692        8.24712319399922       -4.41856945136301
H           13.51997430087675        7.47723854578200       -2.21587652214251
H           13.00638622797522        5.58245948812108       -1.65458259900998
H           11.48425636704022        3.99209699211979       -1.64467862372536
H            9.16155916559075        3.32375489283728       -1.99024868137303
H            2.90604276209315        1.61244503593024       -1.39192526670723
