44
 energy: -8.349085326010 gnorm: 0.000488768891 xtb: 6.5.0 (97a52f5)
C            1.66568462402693       -0.31091410023952       -0.95981428890282
C            2.48695509523608        0.32624387975530        0.14313144359220
N            2.97623689005168       -0.65370471618759        1.13584720572704
C            1.97498108961761       -1.46251817875253        1.86235086792998
C            0.95649202850256       -0.62028296299863        2.60452922327211
C            4.36487169315994       -0.82915283056044        1.36747029595440
C            4.90346408390420       -2.09992711525649        1.63362450525693
C            6.24186040094830       -2.26498803005396        1.85754619911802
C            7.11392036791114       -1.16472040554289        1.83004727204730
C            8.50482066442533       -1.28740250162574        2.06090054002270
C            9.31384581355138       -0.19188217241070        2.03323079293124
C           10.76096350319259       -0.29190307403373        2.27208032085049
C           11.47101352934829       -1.48322839890519        2.13580359757823
C           12.82758306477212       -1.51833359403032        2.36470523501489
C           13.50558259587363       -0.37427008246851        2.73354949254239
C           15.01192521178045       -0.42063459142670        2.96287601455548
F           15.32628268968880       -1.59121637068470        3.54565242579054
F           15.62582756861899       -0.31599070537994        1.77130891207667
F           15.36653501506784        0.60338258384883        3.75951091468338
C           12.81613496327352        0.81460483991556        2.85708415136384
C           11.46045866821543        0.85574364472558        2.62769178112620
O            8.82479592501338        1.08473037004774        1.79120686716561
C            7.48058122481120        1.27139285456908        1.55240233838992
O            7.00032716148556        2.37255240438223        1.32934630058897
C            6.58891335591526        0.10664695742512        1.56808532257779
C            5.23193638894267        0.25716041375506        1.33967409512393
H            1.37438551289777        0.41408676320363       -1.72242955775135
H            0.75173868972803       -0.75968473620189       -0.57000206144585
H            2.23139445491279       -1.10287470483137       -1.45243788205442
H            1.91991293088333        1.09996990769563        0.67000495073633
H            3.35430606708365        0.83277243638623       -0.29135152955019
H            2.50826790699508       -2.10217140853001        2.57247754956119
H            1.49304722116496       -2.13859954393844        1.14941044395763
H            1.45236511260262        0.07614914949036        3.28190571569289
H            0.27491801113091       -1.23307904196246        3.19763155045367
H            0.34930103042773       -0.02952238961976        1.91833812368977
H            4.25327285253764       -2.95652658221858        1.62307537239177
H            6.64224251577479       -3.24461928505105        2.05344103307266
H            8.90870850311501       -2.25648759682547        2.28342531580894
H           10.96153063593182       -2.37877944654518        1.82719594611848
H           13.37983326628045       -2.43713868132930        2.25962728162849
H           13.35612570935305        1.70361434201783        3.13645622302852
H           10.91732809927912        1.78153503968804        2.71677624371069
H            4.85002786256464        1.24834766070346        1.18015345457473
