47
 energy: -8.905278722147 gnorm: 0.000503379548 xtb: 6.5.0 (97a52f5)
C            1.72108557004382       -0.47931676792866       -0.56195295975618
C            2.51533778849422        0.66138192933918        0.04031446082730
N            3.04161837475251        0.34800262418474        1.38623766744045
C            2.06666825253970        0.00014343992969        2.44129960113690
C            0.96755725007217        1.03023251720834        2.60770467157266
C            4.43664038588504        0.28792305378224        1.63307638659993
C            4.97583035132894       -0.64017197673206        2.54095784919530
C            6.32071626376416       -0.69317242088934        2.77969222577083
C            7.20038954664430        0.18236211357433        2.12298399615681
C            8.59748866247790        0.16959766536293        2.34814641245040
C            9.41578124873262        1.04436792286153        1.69937745761307
C           10.86782729074012        1.05950506556009        1.92981891786096
C           11.55551462951223       -0.01158619306853        2.50040837091409
C           12.91751408060475        0.05841885301567        2.69901066324781
C           13.61188722932442        1.18833129965051        2.33244929956372
S           15.37849841852732        1.28180857332699        2.60491971621393
C           15.35817901402308        1.75748685037990        4.36384422908596
O           15.98246251600535       -0.10092479427181        2.52601677396287
O           15.96099049602064        2.45067691235322        1.84467575143185
C           12.95407714204666        2.24950189203751        1.75571398615439
C           11.59309816725863        2.18549167180083        1.55240868666148
O            8.92996776372745        1.98147652849789        0.79585871791593
C            7.57821064662482        2.04211525962432        0.52745831730592
O            7.10140236765099        2.84448528729866       -0.26238755061000
C            6.67651942516153        1.11084843840807        1.21553523498614
C            5.31213006248425        1.15086874445593        0.98331604559464
H            1.38341537141485       -0.25230232368172       -1.57506986395538
H            0.83716592719546       -0.70853074664405        0.03349138927216
H            2.32349129493716       -1.38743161598632       -0.60838442126261
H            1.91696015355821        1.57508062000710        0.10709730505871
H            3.35861258820073        0.90479780561874       -0.61225413744137
H            2.61275729073386       -0.10472359043884        3.38380205551924
H            1.65625089030683       -0.98929752091931        2.21733435843096
H            1.38913521316653        2.01784600955726        2.79919676886979
H            0.30201651962906        0.78635785480945        3.43808478162867
H            0.35233793729247        1.10847859483942        1.71117809918919
H            4.31988456826573       -1.33993146918169        3.02705511920205
H            6.72064528780847       -1.41199778102594        3.47381177981720
H            8.99858150439118       -0.52360486328126        3.06258557689724
H           11.02541044685566       -0.90744202912960        2.76985924538206
H           13.45178512458299       -0.76997782657762        3.13419520270622
H           15.46032146883157        0.87474559432454        4.98702592489670
H           14.42958466993615        2.26134228646675        4.61378134243125
H           16.18553490010774        2.42879701865734        4.56977166676039
H           13.51487189517011        3.12229183245717        1.46467255329504
H           11.06787843406147        3.00733319812121        1.09655301820995
H            4.93387556910533        1.89969446224547        0.31316730579705
