47
 energy: -8.461281155893 gnorm: 0.000735726261 xtb: 6.5.0 (97a52f5)
C            2.82373393094392        1.04870732314592       -0.62287663541026
C            2.37256237462829       -0.18364541602493        0.13121921775052
N            2.90006332700013       -1.42575048482792       -0.46852645105716
C            2.00609567195285       -2.19163153581431       -1.36596095840126
C            0.58880816157670       -2.37674451132825       -0.85347632793605
C            4.29087485281245       -1.69049330924905       -0.44243782594284
C            4.91428752754939       -2.43434710773212       -1.46065180586735
C            6.26044769090296       -2.67285373131599       -1.43383306856819
C            7.05848228937155       -2.18016754337167       -0.38640556180196
C            8.46607241277381       -2.43654894655019       -0.37530388133127
C            9.36588057341305       -2.03334125712376        0.56611294668860
C           10.80095479438952       -2.38343842696255        0.40076724916875
C           11.77177141299877       -1.35873714158055        0.36196651337617
N           13.08738407461372       -1.65722399616343        0.21047678617146
C           13.45352594252466       -2.97235069926613        0.08857737612174
C           14.84692145265719       -3.40947858123990       -0.06626212057463
C           15.08167566164209       -4.03109912729387       -1.37843512534646
C           15.73481309226434       -3.18999262205496        0.72236159077685
C           18.72471399222120       -3.05318259565555        2.53155519237199
C           12.46614583985161       -3.93180434049246        0.12663737132694
N           11.21106788923953       -3.66100635428425        0.27273515460748
C            8.92569555667397       -1.30561477027340        1.66299434739711
O            9.70350111579534       -0.96702094495496        2.53055393730815
O            3.69668389233740        0.42478007773657        2.81768379219453
C            6.42690909783202       -1.45575446165416        0.58579753318878
C            5.10156028056718       -1.20632883613793        0.57995053107231
H            2.44164861949105        1.96690001889181       -0.17282347761703
H            2.48438626259146        1.01696957572142       -1.65906977588893
H            3.91219258573276        1.11693172257372       -0.64315636037749
H            1.28205521856912       -0.23221730453347        0.17011437555954
H            2.69177895058132       -0.14457841944759        1.17711250090925
H            2.45975783944988       -3.17732115075243       -1.51071231961634
H            2.00941205225940       -1.70262028255415       -2.34548912151759
H            0.59192138107150       -2.74574312475224        0.17297002983429
H            0.03005371526713       -3.09282806262425       -1.45960541027428
H            0.02375204968108       -1.44443439889720       -0.86917559849414
H            4.33185229385071       -2.79098387858388       -2.29064524819869
H            6.72413761655348       -3.23923551742505       -2.22335232786622
H            8.85378783342952       -2.99993017259749       -1.20602542154806
H           11.43673723560696       -0.33832980711317        0.44189110249516
H           13.80260542547460       -0.92042293346503        0.17392492025459
H           14.77663750350185       -3.37799920770315       -2.19364746461963
H           14.53518850068919       -4.96657733796267       -1.48058178575340
H           16.13769259393839       -4.25114661618453       -1.51442281053130
H           17.14131924526469       -3.09144947383715        1.59134240043754
H           19.91488004686497       -3.37340669673472        3.91731431267510
H            4.67668012624917       -0.64315760096236        1.39326770312630
