48
 energy: -9.388114768475 gnorm: 0.000452101439 xtb: 6.5.0 (97a52f5)
C            1.53739793701560        0.92161010020358        0.11661101569998
C            2.39533370974001       -0.32727364251845        0.14844161282202
N            2.95781145811622       -0.68166066629827       -1.17260508363399
C            2.01158729129844       -0.83288437565770       -2.29918705943765
C            0.91181625104451       -1.83792288149192       -2.02183905254996
C            4.34707950887222       -0.88606931346675       -1.34770203353735
C            4.97739209066186       -0.57336020743474       -2.56675666952003
C            6.31822056941608       -0.77030097820485       -2.73641543112156
C            7.10303418259117       -1.29379683952852       -1.69863250099950
C            8.49026656647872       -1.51601133951164       -1.83648072193081
C            9.23056902606088       -2.03027040296166       -0.82554342734159
C           10.66075460848089       -2.24000651506196       -1.03500454442055
C           11.55630670387380       -2.77202157173730       -0.11174374174271
N           12.78345109834875       -2.80086657832221       -0.70985065256302
C           14.05660587293385       -3.21611649721898       -0.32508286413939
C           15.11834991832412       -3.11628621231271       -1.18443215779218
O           16.37229445841507       -3.55915381265030       -0.72112331743335
C           17.42369994499913       -3.44462633515069       -1.65095083349989
C           14.89464396915782       -2.57474971632247       -2.48746922200934
C           13.66580919885369       -2.16580883302291       -2.88617609913789
C           12.57883048615994       -2.27550381916009       -1.99071720433505
N           11.30206894774640       -1.93865275795645       -2.18456779441808
C            8.57954736536411       -2.36609318901442        0.44731857523456
O            9.24513647175301       -2.83852477986442        1.35953005978185
O            7.22218421634029       -2.14230053853143        0.59149842029617
C            6.49490829607876       -1.61527308132104       -0.46824469111699
C            5.12883244106015       -1.40105002810594       -0.31916086256884
H            1.18373244010711        1.19987046077684        1.11137731446603
H            0.65857716651021        0.78893694581926       -0.51474625090880
H            2.09878253584746        1.76630255011139       -0.28478281294638
H            1.83517806696944       -1.18820115294734        0.52627484779554
H            3.22634349789301       -0.18003184236437        0.84473940446272
H            2.57682130038404       -1.14659381470686       -3.18173581062291
H            1.60201264900925        0.15297607325368       -2.54003668450830
H            1.33253409255291       -2.81118772683072       -1.76592859293260
H            0.25695055138787       -1.97578520469770       -2.88450679138973
H            0.28615349620918       -1.52686479513272       -1.18503869278399
H            4.39841516053110       -0.13520410742602       -3.35982987293442
H            6.78929046847507       -0.51957170075605       -3.67108926247389
H            8.97164078644588       -1.27482104925122       -2.76605622177572
H           11.32672521795515       -3.10059406550392        0.88631633383378
H           14.19722717719727       -3.61972924557626        0.65908535164158
H           18.33449415495629       -3.83148083168259       -1.19155859551803
H           17.57594345613255       -2.39602635860762       -1.91103909858534
H           17.19907826157574       -4.03400502187395       -2.54117341990849
H           15.72142308770046       -2.48934437397670       -3.16860273722550
H           13.49825650190599       -1.75985829555694       -3.86768925160699
H            4.67407734106745       -1.68598163044225        0.60996712533810
