44
 energy: -8.808298391319 gnorm: 0.000525319370 xtb: 6.5.0 (97a52f5)
C            1.52512606660378        0.04691685682039        0.78402641499770
C            2.43056435179656       -0.18835769906014       -0.40822627611783
N            2.99489158818501        1.05838906675487       -0.96889904073491
C            2.04549253243400        2.13247667980995       -1.33382131029740
C            0.97552781695403        1.67538291595450       -2.30492137973032
C            4.38461667046175        1.19781321860644       -1.19265148654721
C            5.00988325015867        2.45693756675818       -1.11398680088264
C            6.35130370419516        2.59133730332214       -1.33163248062256
C            7.14307635142897        1.47619033069432       -1.64262059560107
C            8.53205395600681        1.57445747458247       -1.87619052902866
C            9.27920404303815        0.48680332641912       -2.17978062920081
C           10.71180288048887        0.65802515978820       -2.41263546025698
C           11.61449616582349       -0.34600574962088       -2.74252382274396
N           12.84358875241271        0.23824401596599       -2.87065008628161
C           14.12499045364146       -0.21065747019662       -3.17835682610940
C           15.15394336775269        0.66447255654974       -3.22270945058483
C           14.94466075292518        2.03848478033920       -2.95943837226576
C           13.70850596927486        2.50908436686063       -2.65706405921297
C           12.62688330377845        1.60035013306368       -2.60796355199059
N           11.34719921150426        1.84893864928793       -2.33207533944524
C            8.63456909215887       -0.83030975550977       -2.26863794103528
O            9.30716001913823       -1.81528056223848       -2.54431149025908
O            7.27426979715992       -0.93315509177077       -2.03820425807774
C            6.54070092362716        0.20492072295080       -1.72758934667594
C            5.17341690534426        0.09375773125535       -1.49749216145471
H            1.17190477737328       -0.88984963284583        1.21968679448054
H            0.64554508118817        0.63049778846868        0.51141808180271
H            2.04928874362856        0.59907834158139        1.56523911924773
H            1.90771712625756       -0.72003428471635       -1.20925229383931
H            3.26119927906060       -0.83511063914609       -0.11023490407659
H            2.61165898916967        2.95633361278974       -1.77818924018793
H            1.60738722588255        2.53216009569731       -0.41385681853837
H            1.42445655556836        1.26631352267592       -3.21114577284982
H            0.31542487573860        2.49337820362360       -2.60039414064729
H            0.35034455619856        0.89292282063657       -1.87396973507175
H            4.42625043851419        3.31682812558479       -0.83829042678645
H            6.81815793165602        3.55852498532060       -1.26080454903169
H            9.00899840827718        2.53475989533224       -1.81169902854541
H           11.38866751269992       -1.38964813604196       -2.86988262341142
H           14.26408718504542       -1.25853393714366       -3.37526103835371
H           16.14539409627101        0.31697364434043       -3.46119551398273
H           15.78079404478174        2.71699408311192       -3.00097980272896
H           13.53305774859552        3.55050175825801       -2.45526716991662
H            4.72423749779996       -0.87486677491880       -1.60276465740452
