41
 energy: -8.068829446384 gnorm: 0.000771998776 xtb: 6.5.0 (97a52f5)
C            1.62837490800773        0.78910357990094        0.01994354987342
C            2.37830003821657       -0.47858085895595        0.37547169812269
N            3.00805627932539       -1.12032741323167       -0.79884148075676
C            2.12333886004378       -1.53016013334432       -1.91012868694187
C            0.95643674774607       -2.38979950408416       -1.46622796847800
C            4.41491956353560       -1.22764080947351       -0.91085067543600
C            5.05201665105046       -1.11170942909015       -2.16026400414866
C            6.40877258199862       -1.22228088044741       -2.27107281857581
C            7.20492477519263       -1.45941933913529       -1.14090098579537
C            8.60667363869758       -1.59375829052745       -1.22040717757596
C            9.37530115763893       -1.83797153790720       -0.12792592835890
C           10.83888062867213       -2.00509126708889       -0.24130903343033
C           11.62592711527376       -2.35246909552503        0.80922455137744
S           13.28780329195350       -2.49569986662946        0.38095001871216
C           12.96753413703563       -2.07871633540901       -1.27583172850968
N           13.92700896944704       -2.00063624606570       -2.25587345710306
C           11.62076219808379       -1.84167049126913       -1.45910986518514
C           11.12899122604118       -1.48287409135069       -2.71839776812689
N           10.71287786480524       -1.19183917138820       -3.76313994481368
C            8.70520186155062       -1.94871706917459        1.17934506905276
O            9.36816486293924       -2.15905552811243        2.18595939490930
O            7.33124094069550       -1.81521854313572        1.26532227728345
C            6.58946622305919       -1.57697228802471        0.11947233014071
C            5.20706438938424       -1.45561870275496        0.20933884648116
H            1.21513544860783        1.28159249872806        0.90264268891526
H            0.79944312777075        0.58596244404169       -0.65865356480022
H            2.28735861844344        1.50027133058806       -0.48012471645344
H            1.72350766973795       -1.20969169161155        0.85979408838451
H            3.16033319084481       -0.24963839107633        1.10530057836321
H            2.72818103960548       -2.08515381175364       -2.63401229261123
H            1.78140355401028       -0.62877124541752       -2.42801202804684
H            1.30737198772016       -3.26644598140107       -0.91997783087248
H            0.36391628668446       -2.74180200319657       -2.31310441762367
H            0.28381029044997       -1.84342007869322       -0.80472983789873
H            4.46103723321660       -0.89626140121374       -3.03246961138906
H            6.88341206333064       -1.12492230828135       -3.23194813197074
H            9.05491396023639       -1.49969621317813       -2.18937577187178
H           11.26447217262298       -2.52158164357091        1.80257699100758
H           14.90701107899665       -2.02240884082443       -2.03683619190521
H           13.73418040996160       -1.59973886238396       -3.15682080662742
H            4.75273295736001       -1.58878048853003        1.17219464268297
