46
 energy: -9.012951688336 gnorm: 0.000794494655 xtb: 6.5.0 (97a52f5)
C            1.57216316755924       -0.93108044221440        0.94067486429678
C            2.40678025461801       -0.06221043045701        0.02126053395055
N            2.93649926387336        1.14492226051679        0.69112706983104
C            1.96383991227423        2.06876226818372        1.31392734268248
C            0.88520544262142        2.53459944976718        0.35622383285576
C            4.32729534703748        1.40046694034370        0.74994925940795
C            4.90049555568407        2.03450342576558        1.86791766215751
C            6.24137762020139        2.28758368082960        1.92286888984161
C            7.08442380479250        1.92513397315890        0.86191432383492
C            8.47303584717677        2.18311238195792        0.87516193081531
C            9.25869081072384        1.83321573708433       -0.17274777781966
C           10.71039292425558        2.13171587210439       -0.16899322969104
C           11.64615543939063        1.31735073531184        0.38350351493543
S           13.22539272557074        1.97700744767502        0.19351538090931
C           12.64585237287284        3.36637148106640       -0.68182560576011
N           13.50713697834395        4.36458457937911       -1.18092293784334
C           13.49919641003166        5.03682834900756       -2.40131182181179
C           12.52571259283801        4.63592729904175       -3.45428377551990
O           14.28437004427875        5.93551701505566       -2.62098659337221
C           11.27509579918875        3.32204755133675       -0.77528547000845
C           10.47312121768796        4.33095335111950       -1.32912097048400
N            9.80991066353097        5.17365786160267       -1.77391703654376
C            8.66523968433808        1.16734655568757       -1.33649662846553
O            9.39467119349194        0.85327273115865       -2.26681795512168
O            7.31050311058644        0.90880321701467       -1.35335885000295
C            6.53230157287292        1.28724882030910       -0.26883007186566
C            5.16500384340663        1.03545497377037       -0.29780848566825
H            1.24985832231455       -1.85189528497758        0.45044221191932
H            0.67582984019819       -0.41083577421840        1.27900937472898
H            2.13980490466337       -1.20779385589075        1.83009824349160
H            1.83848420493973        0.25187485572096       -0.85960588752566
H            3.25330044421807       -0.64167854265706       -0.35894153863431
H            2.51497621722314        2.93585713670873        1.69052815684684
H            1.53501585900477        1.57749667668859        2.19276150390188
H            1.32738010102540        2.98670482901721       -0.53260083826887
H            0.22609106263810        3.27544591647311        0.81310998381003
H            0.26108419926500        1.70565121321227        0.02189852110115
H            4.27508167228506        2.28594590086081        2.70586543456053
H            6.66716725079794        2.76798168211974        2.78683191964252
H            8.91109731658803        2.67671524448091        1.72356745911000
H           11.43547639112136        0.38606775833106        0.87169706314553
H           14.30781279077624        4.58206028363894       -0.60242500126709
H           12.15638482658717        3.62536233250018       -3.28634429530949
H           12.99956631325367        4.66438135103847       -4.43432777125822
H           11.67688782770165        5.31756313766280       -3.46814322521915
H            4.75649685614154        0.58591805371552       -1.18246871031498
