78
 energy: -15.585580357837 gnorm: 0.000368889417 xtb: 6.5.0 (97a52f5)
C            1.71060464973569        0.85115111772114       -0.38512001229743
C            2.66226255348724       -0.07796367068550        0.34159110097787
N            3.22441865454381       -1.13425004472847       -0.52789421748311
C            2.26552820886722       -1.97588936625777       -1.27687352314190
C            1.25900786476079       -2.66904973403513       -0.38095678561393
C            4.61704555458264       -1.36391369159401       -0.59890250539887
C            5.21134864349655       -1.86141348578212       -1.77592521127556
C            6.55556716635055       -2.08703673205608       -1.84384611264668
C            7.38422481986141       -1.83164719306789       -0.73973855156266
C            8.77192435962428       -2.07740854875526       -0.76586528881244
C            9.55106155605342       -1.85248360709837        0.32393900257720
C           10.97948030502033       -2.17707748157908        0.26545805048864
N           11.77444510919179       -1.81563068249534       -0.73383567676273
C           12.97898783340186       -2.37034786811655       -0.47744778748532
C           14.18800610729224       -2.28456625656099       -1.25894736497227
C           14.23604678347101       -1.50940986455512       -2.41927252521834
C           15.38819799811246       -1.42502456070748       -3.15474162174820
C           16.52003104904626       -2.11450794480498       -2.74529665100174
C           16.49308215210526       -2.88366670254691       -1.60858442073682
C           15.33180170118838       -2.99655845190773       -0.83115209987034
C           15.27227426367228       -3.82196833989436        0.37984380338410
C           16.36992299271566       -4.57261986632643        0.82364840506745
C           16.29476072942083       -5.35315645009968        1.94964114213842
C           15.11745623733864       -5.41845094786516        2.67971957901977
C           14.02582625772606       -4.69832861496239        2.27751045907829
C           14.07668395960856       -3.89022332406836        1.13699230608216
C           12.93644974493670       -3.13387257750139        0.69275630516474
N           11.64864232638060       -3.00643548591942        1.18317849291910
C           11.04430478215553       -3.69244621435039        2.30038355773447
C           11.32032606344707       -3.30997131953509        3.60391064342644
C           10.75381187661156       -3.98151221758330        4.66360206409531
C            9.88859464430841       -5.04944950307748        4.46084088888835
C            9.27403164572990       -5.77069416322390        5.67077704315468
C           10.40097475989341       -6.38648834345948        6.52107212558055
C            8.47771941223628       -4.75964242089348        6.51771707402427
C            8.31722321111251       -6.89968385727316        5.23918623837360
C            9.61425357308524       -5.42223225266594        3.14994077330033
C           10.18191970313155       -4.75616788891764        2.08673972991784
C            8.95064550386614       -1.27060174237130        1.53383812238558
O            9.67297256141302       -0.96367057763567        2.47284400487704
O            7.58340204633287       -1.06043788960664        1.57505374903747
C            6.81381273988598       -1.33219714750105        0.45015357511380
C            5.44169680810682       -1.10614683888779        0.49159817807905
H            1.36267702000782        1.66379851183991        0.25600857914154
H            0.82809285489912        0.32105687475736       -0.74458043912292
H            2.19455505341545        1.29875016722133       -1.25445859772535
H            2.17707188991437       -0.55729221104483        1.19765684782394
H            3.49274744383014        0.50287368681555        0.75424519073033
H            2.82964637106848       -2.72590775623859       -1.83888161101970
H            1.77025464092913       -1.35179067387150       -2.02727712298807
H            1.76398357451501       -3.27168936136704        0.37541788619539
H            0.59640346446858       -3.32982172008311       -0.94387335871404
H            0.63057935769026       -1.95087373178340        0.14657855157676
H            4.59893925922513       -2.02662588417209       -2.64419390307937
H            6.99758960641389       -2.46292725077455       -2.75048692834687
H            9.21876772949534       -2.47867937426603       -1.65697042972412
H           13.35186771238597       -0.97757589216264       -2.72390987438556
H           15.41668385703792       -0.82383544659114       -4.04881430700876
H           17.42563308363123       -2.04495945073560       -3.32551578181281
H           17.38514842429315       -3.40585616321105       -1.31515397239647
H           17.29248067165228       -4.54520177688705        0.27345889500418
H           17.15301321663987       -5.92136242886361        2.26923755740203
H           15.06350059749470       -6.03564649549645        3.56170069607006
H           13.11206312277313       -4.75308207754002        2.83830395411913
H           11.97693408477709       -2.47380863105643        3.77048340846325
H           10.98324968194383       -3.67084220394648        5.66793598941352
H           11.07803675799772       -5.62029120608552        6.89546786648673
H           10.98619144869913       -7.09133830198914        5.93158304898107
H            9.99443071590985       -6.92017181983821        7.37937642322576
H            9.12103810943270       -3.96980454883777        6.90205112158352
H            8.00831349068239       -5.24970782912478        7.36994919665052
H            7.69363911093820       -4.29280437591213        5.92270860424037
H            8.84038912465372       -7.65676460766383        4.65630275570931
H            7.49394260846535       -6.50881283494513        4.64236982184924
H            7.88701704071398       -7.39457299580056        6.10924183471647
H            8.94801186564969       -6.24298024219017        2.95328707518062
H            9.96445188166732       -5.05128770011223        1.07500622840278
H            5.01791621338285       -0.75976149479870        1.41441873450764
