62
 energy: -12.532948982173 gnorm: 0.000390463461 xtb: 6.5.0 (97a52f5)
C            1.42182247441903       -0.36047349924090        0.46419596724172
C            2.35611332156344       -0.05866974051478       -0.69103185693048
N            3.07237825317236        1.22720008237802       -0.54298358844129
C            2.25738318028484        2.43957873571577       -0.30688809941820
C            1.22169724167790        2.67557791593630       -1.38826940185678
C            4.47554024802792        1.30471912519696       -0.69392099606920
C            5.23113911596656        2.25252964778877        0.02420566283170
C            6.58577480164522        2.32806870356879       -0.12077554592089
C            7.26310190281390        1.46378437590312       -0.99428587850982
C            8.65925604838272        1.51255570060262       -1.17681473937548
C            9.29400724671975        0.67426064169528       -2.03300658268622
C           10.73834484510846        0.78905294741333       -2.17705968484373
N           11.44270210887893        1.62959815409711       -1.43453018072636
C           12.72703245150271        1.48027467159347       -1.82848101266855
C           13.89414439854181        2.11173953516183       -1.38528918363682
C           15.10063506535234        1.79305905321934       -1.96486988302539
C           16.32136101220150        2.46918478303008       -1.47139850235764
O           16.32782840521459        2.95366946655603       -0.35428185197952
N           17.42045297738850        2.53849533762655       -2.32379184180206
C           18.68162614480311        3.07402557809402       -2.05022636935690
C           18.98923184531517        3.58927981503651       -0.79548715839983
C           20.22916435340599        4.11430094382983       -0.52443771252111
C           21.21497331435724        4.14275923297623       -1.50255635097515
C           22.54905925466866        4.73708513466612       -1.21874428528149
C           20.91165806178053        3.64328200270061       -2.75736587266641
C           19.67145090798392        3.10713747423218       -3.04160699224148
N           19.42165987374661        2.60750492804517       -4.39478012645736
O           20.05504601583270        3.11495032602883       -5.33361257501298
O           18.59779724207383        1.69653957276929       -4.56508546341235
C           15.15194929137239        0.81786995480068       -2.98857669686017
C           14.02843263324413        0.18367226763503       -3.43374878327093
C           12.79069128614330        0.50723024412012       -2.85951804100432
O           11.51311645757683        0.07573560469726       -3.06665034398792
C            8.51413694363950       -0.31479134274391       -2.78342694348896
O            9.07586169240611       -1.08167861714880       -3.55010732585619
O            7.14474684779833       -0.36707950019044       -2.60704314815484
C            6.52857611147453        0.50733732953146       -1.72498159768224
C            5.15005215583236        0.44636659936578       -1.55545317501984
H            0.95760952490914       -1.34390196649405        0.36704625718036
H            0.61783076329902        0.37252995285664        0.53261668153913
H            1.96060441377575       -0.33980324749388        1.41244629794197
H            1.82205701405436       -0.04746713167055       -1.64607050878251
H            3.10275342677496       -0.85450698857746       -0.77052579721050
H            2.93040950453422        3.30006952516718       -0.25354857937056
H            1.79480751315589        2.35851168995745        0.68137932132086
H            1.69322985079538        2.71973221292988       -2.37091876505332
H            0.67903689952892        3.61081629697841       -1.23715444056832
H            0.48485156158697        1.87274697022048       -1.41954688330540
H            4.73376345007564        2.89506721669036        0.72848349267146
H            7.15176621302400        3.05146940863192        0.44041918849983
H            9.23608595956628        2.23460935738738       -0.62893147628355
H           13.85119864540519        2.83582371263578       -0.59306979278270
H           17.31025767350041        2.17139256247431       -3.26312790740964
H           18.22633175647952        3.57187023346875       -0.03829736786966
H           20.44550631597314        4.51299923905537        0.45177145207660
H           22.86315002211760        4.52349413794299       -0.19669293697527
H           22.52387330717021        5.81959734773697       -1.34634543368126
H           23.30979776208871        4.33551772041049       -1.88860635603360
H           21.65048797574129        3.67500730893478       -3.53845145265141
H           16.10477592853790        0.55833784688514       -3.41444004307153
H           14.06949693038289       -0.55839965234205       -4.21093970996909
H            4.60270205520433       -0.26234693997080       -2.14674907838351
