57
 energy: -11.608895747557 gnorm: 0.000254946387 xtb: 6.5.0 (97a52f5)
C            2.42430906754223        0.62057291010656        0.22211357599692
C            2.18129662842163       -0.22578094124307        1.45513054378615
N            2.93082537552028       -1.49727284782115        1.42110330392914
C            2.11651524480183       -2.71612135522141        1.24800265676303
C            1.82711218598292       -3.02129610032429       -0.20642656071984
C            4.33506933553302       -1.53855952111890        1.47869596947004
C            5.04668852463188       -2.69712452513827        1.11060738310028
C            6.41018191992520       -2.73392391621412        1.15987073754137
C            7.14329425771311       -1.61697476203581        1.58761786717669
C            8.55050808990932       -1.61601910164525        1.66087286727794
C            9.23960835533590       -0.53165407009634        2.09552059181902
C           10.69318163912265       -0.60863848737855        2.15864897397372
N           11.35542296935360       -1.64143081730620        1.65873342742975
C           12.66292374665004       -1.38632914517170        1.89155004594440
C           13.80651745973984       -2.12769744089432        1.57329553418180
C           15.04572533974845       -1.65150691875599        1.93678190123093
C           16.25055320393801       -2.43806436561262        1.58024608749355
O           16.25130652089904       -3.10370053556624        0.55932031156427
N           17.33521772943550       -2.39214563083592        2.45526253382115
C           18.57714569067353       -3.02993029836510        2.28695142228311
C           19.53632804102384       -2.96684706075394        3.29615591616819
C           20.76195219863112       -3.57365263041561        3.13956144768693
C           21.05692878463813       -4.25218664133477        1.97373510686889
C           20.11822948176178       -4.32470595167490        0.96426112810992
C           18.89212733478594       -3.72132075591913        1.12163970334465
C           15.15443580355180       -0.41265236289323        2.60966402511771
C           14.05487824687401        0.33197734221922        2.92513797642786
C           12.78470899305867       -0.14497520631307        2.57028575644113
O           11.51813037748498        0.33812735969901        2.72976268935776
C            8.50754256031754        0.67855780667045        2.48404619017584
O            9.11746884881640        1.66833377504436        2.86030482390169
O            7.12650458413568        0.68333692920555        2.41037357824419
C            6.45493420230732       -0.44768649688563        1.96895070931570
C            5.06617626193584       -0.43385053471955        1.90158535384746
H            1.87061227558170        1.56088401875932        0.25400870160095
H            2.12362583767458        0.08938123955594       -0.68143958205305
H            3.48154493590519        0.86193487852435        0.10911167364867
H            1.11494531831971       -0.45158459599390        1.55642474730894
H            2.45181212688904        0.31014960720055        2.37003186729930
H            1.18634032907480       -2.59275295693842        1.81241357701989
H            2.63391483415697       -3.54828877266484        1.73540327932603
H            1.24465040341545       -2.22197761311243       -0.66555396201053
H            1.26482603410304       -3.94944029143322       -0.32608842063635
H            2.74959324664765       -3.11434386882667       -0.78022321967936
H            4.50849732901924       -3.56130855765518        0.76656277031074
H            6.93962845852631       -3.62486434430761        0.86939414996600
H            9.09177490158801       -2.49840212136975        1.37355084224386
H           13.71851734702311       -3.05714826884524        1.04272744614775
H           17.20609955442341       -1.89040984295508        3.32571741577754
H           19.30673143814500       -2.43713317723590        4.20401371872736
H           21.49381345161156       -3.51841064354671        3.92869962710077
H           22.01775274810828       -4.72476553641425        1.85237320301389
H           20.34581664821351       -4.85406967664790        0.05357877985533
H           18.15266194148627       -3.77588932149494        0.34380263360417
H           16.13391567940822       -0.04181974470241        2.85463700422654
H           14.13943486937531        1.27579697322719        3.43304421971663
H            4.56321128710331        0.46177491558503        2.20984594839201
