57
 energy: -7.929421722869 gnorm: 0.026888103920 xtb: 6.5.0 (97a52f5)
C            1.93166258049325        1.42992210938387        0.84422229602108
C            2.06579279114143        0.90886600704632        2.19718004314518
N            2.67694525083674       -0.39980941711376        2.29456886284494
C            1.82611171133764       -1.57140418628565        2.23975301595875
C            1.76860973544390       -2.24036113706935        0.92166419335258
C            4.02602414546280       -0.50905698197320        2.35964121876203
C            4.73602891803530       -1.63855176786158        2.37197290257185
C            6.03523860396051       -1.74622933169761        2.48235784976982
C            6.90723823407533       -0.74745294974873        2.63877654469374
C            8.24972307129414       -0.85853412692771        2.71406624880341
C            9.06472270918387        0.12449388647596        2.94971395827059
C           10.47082372249084        0.03744752876228        2.99451942506680
N           11.16931197833306       -1.03408691295594        2.69515482943974
C           12.47284054176362       -0.68815169038961        2.86775400753851
C           13.53492425579156       -1.53918970803302        2.64992650565063
C           14.80019215491257       -1.25952567951782        2.81192650026338
C           15.89429157545291       -2.14978184048827        2.53894071261193
O           15.67574631508243       -3.22855709756614        2.01241486720152
N           17.14143281472315       -1.73143998725473        2.88752320628565
C           18.32643395564925       -2.40688327652789        2.71250923936410
C           19.49310246076310       -1.90785488290541        3.21379583502316
C           20.63476292616821       -2.53819326377601        3.02060951896308
C           20.66771693087445       -3.66284570115387        2.32798704554140
C           19.56105389103456       -4.17031856165246        1.82018877774787
C           18.40218594371441       -3.56684547254206        1.99709606117613
Cl          22.47532290826790       -0.75557912335559       -2.90963111367466
C           13.66116236742220        1.40813470326477        3.56278898840168
C           12.55686893261446        0.67016896535975        3.28694233774586
C           11.26548303375171        1.09349051885280        3.37391805825258
O            7.58598045051026        3.14460030101959        3.45272105001459
C            6.48145576372373        1.56837562499911       -1.67552297099546
O            8.40805865373999        6.58007036566087       -0.97324053931200
O            6.87918725591481        3.99150128451276       -0.12847248590349
C            5.77831044271350        4.25793468474158        0.35301439960208
C           10.53645517567553        1.89911489780783        5.14685203074938
H            1.69340228521476        2.47718669820223        0.81829616148346
H            1.23813034072966        0.86751216610210        0.23182181119930
H           -0.17766755741359       -3.68362513965653       -4.09068461251413
H            1.17208302438964        0.97527659602045        2.79972558491757
H            5.92055219399839        0.19852400040762       -2.84690696564784
H            0.86131805646201       -1.37792646307353        2.67591203892190
H            2.77417083105959       -2.47277338686130        0.56909997641531
H            1.29689170568902       -1.60387989291630        0.17219900246035
H            1.21192919847562       -3.17845260847844        0.97343261964796
H           -3.15962169062269       -3.64407292449572        0.25067081558328
H            2.53459512905933       -8.05035623514375        2.70923413545214
H            6.81704769351863       -9.06874237866550        2.51095465918726
H            8.98831714243145       -5.52687189993746        3.85876823220434
H           14.80392969245642       -4.90755277041109        1.15513675623172
H           17.59210435712272        1.22297375289405        6.31077316851542
H           19.45687863940018       -0.11823338765545       11.10849689504195
H           24.59779378598769       -2.15427938322721        9.11531890556240
H           27.39662384531735       -3.87499726088984        3.45979500979130
H           24.60172776761491       -4.70275035422669       -3.89721993247054
H           17.66485224135537        0.20075887185806        1.54627777822911
H           13.59743890780610        2.41535299250017        3.85397105492050
H            5.39483013778635        5.21579128193515        0.47167348466593
