77
 energy: -16.012500471272 gnorm: 0.000807928132 xtb: 6.5.0 (97a52f5)
C            1.28304587653880        0.48939151011458        0.88927512403459
C            2.61574279644279       -0.21070412994866        0.70011020058867
N            3.14942899910736       -0.23616262071456       -0.68306470043945
C            2.19175845885417       -0.14203400889907       -1.80434505396305
C            1.78231361357495       -1.50770554150003       -2.31332647649817
C            4.48763157715735       -0.59714192923315       -0.91403272288755
C            5.04652791950432       -0.55922445085230       -2.20973340744029
C            6.34582924694072       -0.90851824960245       -2.43115652453171
C            7.16957941010005       -1.32313181287705       -1.37169980651372
C            8.51396878768632       -1.68552086089539       -1.55791981876767
C            9.30104988633804       -2.09254142543010       -0.52252386425896
C           10.66894378167234       -2.43957208951158       -0.79724274140949
Cl          11.21454179828664       -2.26864483872110       -2.41027316566903
C           11.55977265482341       -2.90649448966007        0.13296204096963
C           12.88804803359947       -3.22633977883986       -0.16123522506354
C           13.73944936369317       -3.73915720414088        0.77126278105480
C           15.10795739506664       -4.12600347961223        0.61055760911025
C           15.83508504136755       -3.94128537963048       -0.56003260498304
C           15.34483526179363       -3.32157721438827       -1.69374426759713
N           14.93792200472429       -2.80414306556093       -2.65609001566552
C           17.13342563609869       -4.40627539609123       -0.68676751539759
N           18.22487378654582       -4.79944629200322       -0.80577802025847
C           15.74614041077046       -4.77055906101776        1.78388589461466
C           15.10222121880787       -5.81080696960933        2.45988843321957
C           15.67725169889919       -6.40487061055203        3.55421587667262
C           16.91874329868185       -5.98319762371741        4.02788421171074
N           17.51979390001592       -6.61220123788660        5.16286153825554
C           17.30908303068029       -8.01172742016636        5.40607806598297
C           17.12354266777753       -8.48821777027950        6.70114674630914
C           16.92249554620126       -9.82981113267319        6.93322515359781
C           16.90482223661386      -10.72001765311664        5.87777644152243
C           17.08986503758912      -10.26343166224011        4.58787337471083
C           17.29054561241129       -8.92239423474885        4.35280553298717
C           18.33933188470322       -5.85377329555660        6.06491455220514
C           19.48265963958772       -6.41532934066386        6.62717508910035
C           20.26580812594242       -5.69123940015031        7.49688238473020
C           19.92157380919640       -4.39419712101150        7.82221868047226
C           18.78957682093156       -3.82372639424279        7.27466858579666
C           18.00461974288675       -4.54554131461174        6.40460687003791
C           17.55973160676747       -4.93862599196141        3.36312418710739
C           16.98644097385643       -4.34512605528766        2.26718725061158
C            8.71912983603340       -2.15624128946510        0.82894219092602
O            9.40712602161944       -2.52939604182396        1.76824018159340
O            7.39725163832900       -1.79048161586518        1.01594509958048
C            6.63495387185061       -1.37973956972941       -0.06739427501023
C            5.30824207926747       -1.01494382812087        0.13052787591135
H            1.00462453871226        0.55084619953390        1.94329721696124
H            0.47607390930013       -0.03711821480231        0.37855823289002
H            1.31675649502199        1.50886404806161        0.50275244522479
H            2.55566206276602       -1.24662626470604        1.04871972514666
H            3.36767169582920        0.28310208495010        1.32404789178388
H            2.63977754100336        0.46316190801408       -2.59767923312990
H            1.31647031131425        0.43188484169138       -1.49060209379419
H            2.64992223139999       -2.07612277085694       -2.65046248767488
H            1.08128783046639       -1.44368523550431       -3.14753027559632
H            1.30796644138558       -2.09090981338335       -1.52305386185450
H            4.44354470852909       -0.24317886324645       -3.04067795449745
H            6.75667451367564       -0.86931726915930       -3.42523428372033
H            8.93479716835389       -1.63925635368236       -2.54486448531151
H           11.21785796220357       -3.03934620458935        1.14382220779232
H           13.22129271914790       -3.05853803341352       -1.16805510797431
H           13.33271723509805       -3.88674790784637        1.75708247029461
H           14.14780999167512       -6.15429780051069        2.10007943030031
H           15.16868205416753       -7.20073408415844        4.06908390000343
H           17.12976001849223       -7.78824631618400        7.51811432646141
H           16.77730231281205      -10.18578581910764        7.93991847825830
H           16.74699527572300      -11.77019009710438        6.06062902961953
H           17.07840727294029      -10.95822069405615        3.76422756497137
H           17.44616039101745       -8.56190313420826        3.35113511092379
H           19.75005198680639       -7.42341610388658        6.36300197593539
H           21.14927670562199       -6.13685561339091        7.92371563085761
H           20.53556507855161       -3.82790584770643        8.50307914343252
H           18.51903229110915       -2.81257293465757        7.53091034129995
H           17.11404430751036       -4.11095910013017        5.98568104221072
H           18.52330995119119       -4.61376099751158        3.71402713464024
H           17.48972194475033       -3.53675739907004        1.76607875651544
H            4.92300101404855       -1.08729682694829        1.12873596089056
