48
 energy: -9.840983850056 gnorm: 0.000839469916 xtb: 6.5.0 (97a52f5)
C            2.40630412832136        0.93895866100350        0.06920146419689
C            2.13347748158819       -0.54385972223456        0.21999634524722
N            2.69958244201745       -1.33872621690728       -0.88802273995122
C            1.72032603255111       -1.87169528775384       -1.85606289770856
C            1.47000474350488       -0.92267767692027       -3.00923861669853
C            4.08049028615702       -1.52753481559170       -1.04127003566561
C            4.61298650954293       -2.11594551584915       -2.20715519153141
C            5.95522745578139       -2.30576464434560       -2.35341192608224
C            6.85243821452093       -1.91749081668896       -1.34394748158830
C            8.23928278727085       -2.11782005943870       -1.45028727178347
C            9.09079899280040       -1.75985751773673       -0.44392062754067
C           10.51368520099038       -1.99811027782838       -0.58754465544048
C           11.37250911590633       -2.47176881902522        0.35820589354163
C           10.96912653765434       -2.94797379341846        1.60759107733994
N           10.65768282077832       -3.39786418403844        2.63251894948232
C           12.77540259620353       -2.58778710269848       -0.00004472145208
N           13.71318097141635       -3.05497021964463        0.81106921311691
C           14.86414105699223       -2.99603340566507        0.10438071094654
C           16.17397477179878       -3.35607643846804        0.45916430476796
C           17.17336799488061       -3.19260476679998       -0.45925906856676
C           16.90800302357759       -2.67516696682266       -1.73639082921486
C           15.64228839964383       -2.31531179074747       -2.10770682334245
C           14.59631942380899       -2.47027390964762       -1.18815377102483
O           13.25493222067074       -2.21386162147184       -1.23928269376616
C            8.54507313341197       -1.04951054537357        0.72615947496358
O            9.31614472398285       -0.57391983231090        1.54605559296484
O            7.17809818596117       -0.89920899429663        0.85497020654334
C            6.34476687889001       -1.32146836702394       -0.16874716744152
C            4.97197038718594       -1.14411383451306       -0.04419329875822
H            2.00444312927663        1.51631666903983        0.90415823074085
H            1.96046481906129        1.32729770611718       -0.84683508055146
H            3.47582028091360        1.14225667853631        0.00997425427434
H            1.05548965722389       -0.72789108692883        0.26939067510423
H            2.53436055253371       -0.93240350063469        1.16131164643909
H            0.78841160916385       -2.09177281017348       -1.32502523981546
H            2.07900185866102       -2.84381789326559       -2.20843248879263
H            1.03588450521179        0.01354578408666       -2.65768675284687
H            0.78665072599320       -1.34628742934527       -3.74764677795519
H            2.39955438845287       -0.67123129664614       -3.52035766337325
H            3.95187390458466       -2.41220109907790       -3.00078671941000
H            6.34394672322278       -2.75910477551765       -3.24895391378573
H            8.63340852630270       -2.59545054610131       -2.32905901514395
H           10.93904896527728       -1.82005219971362       -1.56368448960708
H           16.36799715525279       -3.75135866167793        1.44013630054485
H           18.18290051224808       -3.46556517366787       -0.19987579298830
H           17.71909029490567       -2.55921388731323       -2.43627635758358
H           15.43045317636027       -1.91787227307329       -3.08395558289525
H            4.61284269754244       -0.70197572235946        0.86438135207315
