48
 energy: -9.950029136035 gnorm: 0.000677856317 xtb: 6.5.0 (97a52f5)
C            1.63169508435337        0.58149697161641       -1.46319355857190
C            2.46713929855931        0.03817060362174       -0.32079853420126
N            3.05905387785174       -1.28618563887874       -0.61142779491269
C            2.13328383960234       -2.37041555479474       -1.00859397454215
C            1.00747227653686       -2.58929104165882       -0.01716710915035
C            4.44722835407030       -1.51166542932626       -0.50109588821813
C            5.09570410554242       -2.46167919858024       -1.31786681610468
C            6.43674177506281       -2.68388290521249       -1.21135522782572
C            7.21399349900546       -1.96972040728074       -0.28285456884822
C            8.59164642505616       -2.19623695377371       -0.12121981270341
C            9.32177590626530       -1.51526470332365        0.81098780092139
C           10.73107570122233       -1.80934913698914        0.96547156229631
C           11.45536643110663       -1.88339288396801        2.11774388120484
C           10.94423161451144       -1.79776085234815        3.41708141094155
N           10.55128106463800       -1.77828296964558        4.51039757862002
C           12.83289801488223       -2.19727790544174        1.93881474273391
N           13.80631097646834       -2.38188113328657        2.80585058784651
C           15.00350242592098       -2.68199237616206        2.17289247565284
C           16.23278716809849       -2.93465665239986        2.82288251275692
C           17.34534415114517       -3.22177066679115        2.08015947993337
C           17.29489171015652       -3.27133682554538        0.67878244805300
C           16.12563727017786       -3.03301358483820        0.01165452147498
C           14.99322276047032       -2.74155589961748        0.75784514831583
S           13.41155625043301       -2.39676627982521        0.38757638573792
C            8.66718409924845       -0.43866447412356        1.57421519712722
O            9.34990204763479        0.29923805346916        2.26823594677670
O            7.30237333048501       -0.25778952663607        1.46130403579703
C            6.58822883998175       -1.00667763969894        0.53972909261231
C            5.21929854084197       -0.80137300872325        0.41328150313018
H            1.25956389414952        1.58660641461207       -1.25431911383533
H            0.76636674462414       -0.05050284461689       -1.66428778742213
H            2.21847820455077        0.62906681345837       -2.38159540830984
H            1.88334591330369       -0.04004993603683        0.60152260081834
H            3.28063178873046        0.73672837097895       -0.10440648168733
H            2.71129254492151       -3.29397617119730       -1.10794528680060
H            1.74917405205409       -2.14529800235417       -2.00845815365530
H            1.40352818876290       -2.78410522482630        0.98046351748209
H            0.37825987866464       -3.43722417287688       -0.29534881527778
H            0.36050577454362       -1.71486059652761        0.05582461099782
H            4.52818488910570       -2.98837046071811       -2.06405344153133
H            6.91758871846101       -3.41132088169316       -1.84251384344012
H            9.07052099002353       -2.95128101067346       -0.71825618609591
H           11.28341143312353       -2.05099457820628        0.06656705739501
H           16.27288523955411       -2.89765932230243        3.89690704081281
H           18.28071467880167       -3.41420778106502        2.57938584375298
H           18.18954652158117       -3.50028023573267        0.12331746192976
H           16.06252688395163       -3.06546028082197       -1.06176844815154
H            4.75668682175635       -0.09864207923450        1.07933180616517
