73
 energy: -15.297615538087 gnorm: 0.000981596934 xtb: 6.5.0 (97a52f5)
C            1.70463426172775       -1.04521630744083        0.31538665557446
C            2.49611817369711       -0.37250588511160       -0.78801087283447
N            3.04385080511265        0.94281070710548       -0.39006478303868
C            2.08342369340822        1.95102211061031        0.10969248887480
C            0.94721992910669        2.22180631426178       -0.85598645685302
C            4.42273189630651        1.22464749808390       -0.48464526773432
C            5.04363628612844        2.12195221052361        0.40957678296808
C            6.37541184654582        2.39902306465909        0.31711120447079
C            7.16852524620074        1.80055130372283       -0.67782497620099
C            8.54210417920885        2.06910253569877       -0.80931389585160
C            9.29782000964586        1.48634112629324       -1.78488526465022
C           10.69046420050518        1.81297669610455       -1.86681291781451
C           11.56067924583883        1.32659031784533       -2.77713922305272
C           12.95946670717827        1.63602756309518       -2.93483268773271
C           13.65997128690017        2.47412411483264       -2.08025679106071
C           13.11486010816740        3.07450739180458       -0.95810556492022
N           12.65215231394990        3.58886968794217       -0.02011214565831
C           14.98411746066328        2.81711807452525       -2.30658237316094
N           16.09571572367228        3.11769236804817       -2.48744802482439
C           13.63399977181559        1.01371860713094       -4.09641741944691
C           12.98528797865511        0.92527971430221       -5.33214529953189
C           13.59139522455526        0.33431610767309       -6.41128181799628
C           14.87666634134772       -0.19624617850844       -6.31060071193915
N           15.51085328027802       -0.79977404214391       -7.43936129241950
C           15.17758020716858       -0.37866563604192       -8.77181138475886
C           15.05086001406997       -1.31206099753992       -9.79737256650418
C           14.73265962455658       -0.91233018667257      -11.07525721863726
C           14.53846101118189        0.42613542129098      -11.35370003651424
C           14.66686625943137        1.36468305813752      -10.34896743155298
C           14.98475532102088        0.96786289117559       -9.07005224150043
C           16.50350568661245       -1.82271259299351       -7.26091764689476
C           17.65300978499349       -1.83598886836137       -8.04678525657782
C           18.60585680275325       -2.81493260074705       -7.88089769086836
C           18.42728222068846       -3.80057851432591       -6.93049179809069
C           17.29024442760936       -3.80429844146450       -6.14682517459953
C           16.33585963302449       -2.82607738819540       -6.30992351200415
C           15.52513743116212       -0.11802504128758       -5.07901594064303
C           14.91665803236656        0.46700473026508       -3.99780775614326
C            8.64974258819292        0.55290061492777       -2.72258042111692
O            9.31051737216158        0.02860501082731       -3.60763884204827
O            7.29902628488137        0.28312214558519       -2.58989156041354
C            6.56992627699869        0.89861790751938       -1.58375120091181
C            5.21147808237913        0.62799150636680       -1.46378921608113
H            1.36450350918568       -2.04146813221092        0.02570520029453
H            0.82156492787038       -0.46600084201695        0.58603067454536
H            2.31025180236488       -1.15033251606622        1.21653240672321
H            1.89075526155314       -0.23605167062147       -1.68943407695844
H            3.32943708402966       -1.01749725513810       -1.08130705285508
H            2.62848631773902        2.88070772350899        0.29743019928636
H            1.71078517068504        1.61935530060257        1.08375783679940
H            1.33203540206509        2.52360957833652       -1.83103596943582
H            0.28781430887448        3.01555234087530       -0.49926138817677
H            0.33299230456151        1.33472476784764       -1.01190287898312
H            4.46275318029660        2.55858581415924        1.20197837552796
H            6.83776251625193        3.07856974792295        1.01198103388841
H            9.00251660815902        2.75494810014740       -0.12156244001524
H           11.04531454048942        2.51196842178398       -1.13404069578707
H           11.16734953662618        0.61875554293985       -3.48334933323344
H           11.99890599231916        1.34283576221136       -5.43649207061328
H           13.07289710785744        0.26385218947960       -7.35123065573234
H           15.19678763983605       -2.35382043589273       -9.57180774535195
H           14.63352529940878       -1.64497412375044      -11.85926263968535
H           14.28843888682512        0.73806610325077      -12.35441066740697
H           14.52002496915105        2.40970049533547      -10.56708776607248
H           15.10149567462921        1.69591539330311       -8.28654594260759
H           17.78869975714571       -1.06105185742873       -8.78064077873315
H           19.49292728957631       -2.81139068419838       -8.49273675062628
H           19.17403193553493       -4.56672386912811       -6.80159160952931
H           17.14899912468023       -4.57611911852583       -5.40819005208536
H           15.44120578156644       -2.83209467135028       -5.71237627796457
H           16.52172119733361       -0.51325783374581       -4.99079929303192
H           15.42728273529510        0.50434325690791       -3.05153824840558
H            4.76666110622659       -0.02844564817042       -2.18639384309218
