75
 energy: -14.284601190098 gnorm: 0.000475744019 xtb: 6.5.0 (97a52f5)
C            2.45371934488551       -0.37130271126190        0.39264877686172
C            2.28616883129981       -0.32761502754472       -1.11165581091485
N            2.91149670222036        0.87113277007110       -1.70543804834494
C            2.08301554981878        2.08762021923514       -1.89174085325573
C            0.58587874431555        1.92241096403185       -1.71018685743207
C            4.29887163607403        0.93066485096596       -1.90706930844690
C            4.91942825872461        2.11634035825874       -2.35691138791619
C            6.26826112458150        2.18310704347766       -2.54448353054050
C            7.08707436604251        1.06891487353057       -2.29540871849039
C            8.48221577078532        1.09838118138470       -2.47661537170952
C            9.25786985406141        0.00648564999642       -2.22906304543603
C           10.68134718164634        0.09942677751139       -2.42814909505335
C           11.56834375401679       -0.88972831579172       -2.26560393895920
C           12.99199549918301       -0.69199729381367       -2.48766569815464
O           13.41653683332122        0.41600453421446       -2.79959780610797
C           13.84559663825806       -1.83359282616771       -2.32620976242284
C           15.20846362469740       -1.80298992160035       -2.48407993392311
O           15.86637900322472       -0.65289748318473       -2.80794367534336
C           15.97568572941965       -3.00629217292086       -2.30552448852867
C           17.31342662620021       -3.01770991851763       -2.41228080305635
C           18.17060796550514       -4.16124734236743       -2.25844779948581
C           19.52046176680432       -3.99328141696444       -2.35127494635744
C           20.40935426848853       -5.07428899046831       -2.21660521485146
C           21.80389433595396       -4.92028396361639       -2.30178215540984
C           22.63538736203708       -5.99224575770983       -2.16926707609299
C           22.12616836510592       -7.28931907206629       -1.94683088901674
N           22.98055525542121       -8.39151683435736       -1.82074779420781
C           24.44720048101773       -8.27561737572621       -1.92700843465509
C           25.08000202941236       -7.83296247794214       -0.62459512638543
C           22.48007395544700       -9.75969407381979       -1.58973624501895
C           22.01907457361965      -10.42176320084812       -2.87105924556186
C           20.74552996096170       -7.43702734671337       -1.85999390147641
C           19.87508473505200       -6.36002355593448       -1.98688346964209
O           18.51004822893570       -6.57551741107063       -1.88433780603333
C           17.63669460161690       -5.51012195316328       -2.00943759125267
O           16.42860799502503       -5.67365431818632       -1.91834399534109
C            8.61539299873117       -1.23243286195724       -1.76199304321991
O            9.30010254745655       -2.21984992540712       -1.53645549067301
O            7.24445352026550       -1.26275982053866       -1.58295166524301
C            6.49292447369539       -0.12860521545724       -1.84570970472081
C            5.11506858511566       -0.16942119797019       -1.66169161071472
H            1.99650878565493       -1.25982658071985        0.83233457866134
H            2.00016794943959        0.50274267993367        0.86114094246560
H            3.50808674931297       -0.36739977486917        0.67095431219429
H            1.22897346201122       -0.35910334157519       -1.38666919772664
H            2.71388236029147       -1.21504900205430       -1.58773030546023
H            2.28592721569199        2.46409998410725       -2.89969045107201
H            2.46188381815916        2.84429984228994       -1.19661351674647
H            0.17574792298591        1.20769541816759       -2.42480345401364
H            0.05504577976203        2.86495435357289       -1.85855023220463
H            0.34123205744445        1.57191587356933       -0.70705780812769
H            4.32061558202217        2.98746745804968       -2.55007637425583
H            6.72334156910766        3.09644638579045       -2.88672416053520
H            8.94076702769447        2.00829911866449       -2.81937302673207
H           11.06997522039668        1.05442795427660       -2.73832823085115
H           11.22856529788166       -1.86151515686725       -1.96097605055067
H           13.38521726071493       -2.76810749740499       -2.06541745243253
H           15.18682383842677        0.04196375220864       -2.89182767558613
H           15.45418466899961       -3.91767102059998       -2.08006047259678
H           17.78976236351201       -2.07760988120101       -2.63231420371349
H           19.92140351995003       -3.01224952353031       -2.53171853395015
H           22.20854148888304       -3.93807709616668       -2.47412113833176
H           23.69766515746019       -5.84332472418504       -2.23199796296035
H           24.68640430396166       -7.59030242556008       -2.74583648405811
H           24.84836494361904       -9.24471721186769       -2.24204640196825
H           24.68812344098168       -6.86718646333841       -0.30429747607745
H           26.16492409785879       -7.74179620606252       -0.70470335087178
H           24.86322749167317       -8.54371787854915        0.17378128845551
H           21.67890308802424       -9.71837232300002       -0.84560754885139
H           23.27697901872552      -10.34389855419479       -1.11774031083011
H           21.22478641140524       -9.84701714952887       -3.34824427189487
H           21.64235659888686      -11.43186892927082       -2.69908380912347
H           22.83675449063091      -10.48903560011212       -3.58969554819310
H           20.31269398812155       -8.40347477890383       -1.69195069225973
H            4.69648995186985       -1.09304114062799       -1.31407241724209
