66
 energy: -12.545814604660 gnorm: 0.000548457143 xtb: 6.5.0 (97a52f5)
C            2.04785452640088        0.02240360686187       -0.44435900068824
C            1.99712169722610        0.06757675378237        1.06825940698820
N            2.71119137905029       -1.07058669534706        1.68117356464205
C            1.94501559334650       -2.30176739432564        1.99505536922197
C            0.43281603727066       -2.18105819772891        1.97748923578121
C            4.11088208051218       -1.07022928116578        1.78426727991435
C            4.80786228543547       -2.21352240488185        2.23206237136454
C            6.16698915342161       -2.21869594492486        2.33834523309983
C            6.92112259422228       -1.08146530906909        2.00331289737347
C            8.32339525423564       -1.04604167428725        2.10724285100565
C            9.03581535588199        0.07099106475754        1.78855468284814
C           10.46776538235089        0.04977259214290        1.92841917037282
C           11.30158320076502        1.09297172756054        1.82186059920715
C           12.73471010056839        0.92562616797281        1.97775767223087
O           13.19300966177383       -0.19266759139987        2.16071515166748
C           13.65287423967346        2.07567163819721        1.90792203358498
C           14.98132768459945        1.81382647018933        1.88117968702871
C           15.94191155679454        2.84226552262624        1.82207757295543
C           17.32205758683367        2.58732306555542        1.78738068185138
C           18.22030314267193        3.61172961227048        1.73116757355204
C           17.79483214983878        4.95642697542926        1.70707338520479
N           18.71851063831453        6.00869787470742        1.65304983281780
C           20.17654936807653        5.78485446995191        1.63323751643058
C           20.68481430745973        5.46010550622972        0.24429743861937
C           18.30587231227578        7.42398091074711        1.60405138240886
C           17.98815766834661        7.97392722405640        2.97887529376414
C           16.42663133244945        5.20346052159872        1.74126556617031
C           15.48960671178878        4.17701203808866        1.79722222807521
O           14.13948935151015        4.48802247067891        1.82976756477849
C           13.20223132189726        3.47234137820568        1.89207975649380
O           12.00723887226317        3.72342304254834        1.94039169737153
C            8.31729383312414        1.25632725189851        1.29783541166753
O            8.95073619087768        2.25060940461546        0.97575842373061
O            6.93808406791994        1.22545145506606        1.19937798160916
C            6.25080102706357        0.07342931504782        1.54841755990013
C            4.86387396464172        0.05098807037238        1.44734806805509
H            1.52907849937912        0.86837742076653       -0.89934605910982
H            1.58918856473042       -0.89195280772871       -0.82257301285232
H            3.07761314964315        0.03174087537101       -0.80322082656623
H            0.96339414043281        0.08104978307265        1.42275528150431
H            2.42511010469288        0.99713073041080        1.45528484873410
H            2.26737409710737       -2.63688612052769        2.98638652183674
H            2.26817161078695       -3.07235129582107        1.28713644790736
H            0.08594526337957       -1.44089536395190        2.69978295308656
H           -0.05061313138793       -3.12715374416862        2.22950941301245
H            0.06643339350115       -1.88689786995662        0.99343743095847
H            4.26025543981301       -3.10197895582978        2.48797073755174
H            6.68061630864864       -3.09976089910064        2.68232376434541
H            8.83916519177804       -1.92129835476907        2.45904482720153
H           10.91656330153362       -0.90255962940811        2.15628624136622
H           10.90867123442490        2.07299334698134        1.62681114627399
H           15.30754154453478        0.78966972109287        1.90670203761996
H           17.66342361208592        1.56678562348736        1.80541865854941
H           19.27069207675112        3.38788334432261        1.70045106122911
H           20.41828648718802        4.99213890900804        2.34761770331797
H           20.66912946884793        6.68080259496959        2.02540022431539
H           20.19617867960915        4.57133565180961       -0.15599107576871
H           21.76198960596875        5.28304929702686        0.23163875051700
H           20.47394833405859        6.27641136447770       -0.44766567738989
H           17.45298755347520        7.51681333870745        0.92486374705927
H           19.10850149929711        8.00117050212289        1.13303237375949
H           17.18702059703594        7.40734621650731        3.45430358120859
H           17.67946079358806        9.02038757763580        2.94170567998523
H           18.85707600343324        7.90654631994668        3.63461510220194
H           16.05599478941421        6.20960393752895        1.73299871100416
H            4.38604015533819        0.94219684799521        1.09169626603923
