45
 energy: -8.395265190474 gnorm: 0.000768477646 xtb: 6.5.0 (97a52f5)
C            2.51436188253450        0.81156529857159       -0.14019850514675
C            2.25533337851201       -0.22587625119198        0.93261277469895
N            2.78581974349849       -1.55595205475587        0.57287174645180
C            1.77812242601507       -2.56186763690859        0.18326229131829
C            1.52753637475185       -2.58539618874776       -1.30946643399239
C            4.15974801046789       -1.82907313420772        0.54858759595110
C            4.65516930074778       -3.04468364304519        0.03077470858883
C            5.99117356808451       -3.31466568812500        0.01739315109584
C            6.91954341903648       -2.38795733983347        0.52276797144533
C            8.30339425949999       -2.63508652847198        0.53625176780026
C            9.18865969297809       -1.72783319629300        1.03951413304457
C           10.59035387640220       -2.04961402283464        1.03928203011287
C           11.57140146404340       -1.28852411609540        1.55558624450059
C           12.97452233228061       -1.62906769148368        1.56058954511714
O           13.46466580198751       -2.63879486596865        0.78050589037825
C           13.81099036298252       -0.89911194029625        2.37489040072391
C           15.22055697302323       -1.08459179982206        2.52661077526390
C           15.92501249640392       -2.15375000000717        1.75827213182529
O           15.86136751282555       -0.36313319653414        3.27551634590994
C            8.67526124418698       -0.45424559871179        1.57031228520257
O            9.45692958555904        0.37391811917650        2.01449395000247
O            7.31382400681801       -0.21058862872041        1.55856143805815
C            6.44981180167517       -1.16407744478673        1.04492273535141
C            5.08231579325908       -0.91293233522818        1.04381658194398
H            2.14731325167590        1.79855212373266        0.14706564430248
H            2.02665511064903        0.53709232688522       -1.07588969807625
H            3.57925342445063        0.90347187676166       -0.35432860136171
H            1.18127018652412       -0.31489084779338        1.12326230286859
H            2.69223552355675        0.07030002297930        1.89134225981675
H            0.85075490028973       -2.35696052629964        0.72753674224144
H            2.10811505827644       -3.53898359782177        0.54882187225389
H            1.12077438268862       -1.63408976209416       -1.65267687709513
H            0.82158709663004       -3.36803536506245       -1.59386109527722
H            2.45202105748078       -2.75424507354827       -1.86178634310898
H            3.96902119230405       -3.76865865776386       -0.36887246695509
H            6.35169908359064       -4.24680233999620       -0.38191055854877
H            8.66580305720666       -3.56876735560321        0.14526102445484
H           10.85319698233572       -3.00263669998655        0.61796943826496
H           11.29580353547919       -0.36326372186116        2.02683060206929
H           12.77765500639111       -2.98707798533087        0.18084933502327
H           13.38050961500322       -0.11146862738239        2.96438035362910
H           15.38356515808963       -3.09707068102124        1.81930009245599
H           16.92723883036457       -2.30721400338472        2.15496882664443
H           16.00998437057682       -1.87938531441673        0.70787356621367
H            4.75168786886210        0.01958409332813        1.45690202454634
