79
 energy: -14.967079402368 gnorm: 0.000331121227 xtb: 6.5.0 (97a52f5)
C            1.60895168911669        0.06039869552926        0.82669157178139
C            1.97101500682002        0.57179572324615       -0.55148058696176
N            2.62817774329537        1.89666788967420       -0.50014733335338
C            1.77856536388025        3.04682964198531       -0.11970660673069
C            0.41678235790557        3.06921528125691       -0.78640170380608
C            4.03142304713376        2.02161944251802       -0.52173422197393
C            4.67732762839130        3.06925485757526        0.17031451851887
C            6.03378293258902        3.20064667958835        0.14669340958189
C            6.83331705238448        2.29574363943407       -0.57311333161427
C            8.23402945087979        2.40485102208381       -0.62908806680538
C            8.99455345940527        1.52226780286768       -1.33792044653176
C           10.42245738938599        1.69589859344703       -1.35856457434952
C           11.29987250295538        0.89811630693671       -1.99180982777078
C           12.73255168643848        1.08154275253794       -2.01277670413481
O           13.29793309773503        2.26289662801362       -1.62045060674024
C           13.53602378121077        0.04168129494232       -2.44370029262435
C           13.05123270783123       -1.30944513190412       -2.88500530837434
C           14.30216523498032       -2.12331938717200       -3.25542126502680
C           15.47244688850558       -1.22159278466484       -3.00982330840595
C           16.78529873578381       -1.51849774366124       -3.09212768361321
C           17.37664011710649       -2.77519936904957       -3.51925337793956
C           18.48344390965754       -3.24314269589755       -2.87589759459062
C           19.06775716915590       -4.47728683251908       -3.21623344892831
C           20.18738803382512       -4.99450759383300       -2.54244913450023
C           20.70134904220173       -6.21340284245418       -2.87284942225672
C           20.12758136560534       -6.99514844026769       -3.89776367253700
N           20.64170231289555       -8.25682970277432       -4.22277813062874
C           21.75683816170739       -8.87452600975494       -3.48131168137853
C           23.10606481169647       -8.40649866839457       -3.98356300492408
C           20.08419949181505       -9.08452617465075       -5.30877797409318
C           18.86181850942223       -9.86073241637831       -4.86597028394700
C           19.02729880613078       -6.47433990198538       -4.57054102423511
C           18.48392218693069       -5.23395993273695       -4.25438593463219
O           17.38942058513860       -4.77233614745796       -4.96806187168060
C           16.84701697629099       -3.53771966445288       -4.66215965497957
O           15.94627231814575       -3.05954604925614       -5.33652644388175
C           14.98102964818165        0.07581435038297       -2.52320414848697
O           15.71997146006268        1.00625739708779       -2.23511231892255
C            8.32442224215431        0.42644838589637       -2.05822112309268
O            8.99058653276640       -0.37521854527376       -2.69720204854878
O            6.94618761049810        0.31803561232732       -2.00303368738101
C            6.21240863651154        1.23868524887255       -1.27198668117084
C            4.82711837220669        1.12424384661442       -1.22818878339239
H            1.15317348489892       -0.93102947574083        0.79031090804794
H            0.90537438819163        0.72851895428322        1.32428426296359
H            2.49431968890186       -0.00239703364483        1.46069317035930
H            1.08973935749250        0.64144771439553       -1.19573812473599
H            2.63269590213003       -0.13823319941641       -1.05287199343168
H            2.32285181592542        3.95862102272935       -0.38606481845720
H            1.68340588657843        3.05293240788148        0.97075674683105
H            0.51391044438631        3.00148194543314       -1.87074810161927
H           -0.13120143129871        3.98634316250495       -0.56108028212374
H           -0.20559449936266        2.23576637675426       -0.45951371060384
H            4.08995736118007        3.75435785839621        0.75459939431431
H            6.51034602230803        4.00148896748975        0.68510084653032
H            8.71140569628863        3.20929581601239       -0.09913857026187
H           10.80348083258152        2.52554374177720       -0.79173607822856
H           10.91048391119415        0.04539247216625       -2.51441273366183
H           12.61684755023694        2.94219503229202       -1.44484644247376
H           12.37274583107884       -1.20681354763298       -3.73994827206236
H           12.48308924123340       -1.78713284008389       -2.07814124576526
H           14.28316403854164       -2.43451087276962       -4.30548512870628
H           14.39563737227869       -3.03354726603163       -2.65194618677846
H           17.46611900368921       -0.76074411134381       -2.74021220690434
H           18.89981770385574       -2.67666930153738       -2.06261566265706
H           20.63340313845899       -4.41398063772617       -1.75347872787016
H           21.56048431225616       -6.58253963615749       -2.34353098219674
H           21.66775349169025       -9.96260156936271       -3.56870106601951
H           21.62761209017055       -8.66378785378187       -2.41526604691769
H           23.23735284795508       -8.65815552757843       -5.03668056989849
H           23.93036964500187       -8.85781931097165       -3.42802277829576
H           23.20248578549158       -7.32342621376787       -3.90231296635126
H           20.86769735027136       -9.76404891980068       -5.66060186194984
H           19.86376269018427       -8.43822375404442       -6.16391586083282
H           19.10288722305913      -10.52453065286322       -4.03481652597240
H           18.44888904611367      -10.47169077453142       -5.67095252274008
H           18.07392750551440       -9.19162126022040       -4.51887457176523
H           18.55952828338488       -7.03146210642675       -5.35818418862313
H            4.37928093128025        0.33825533506923       -1.80377328609590
