77
 energy: -14.418791170203 gnorm: 0.000448913559 xtb: 6.5.0 (97a52f5)
C            1.13574219922814       -0.39181170907383        0.49975554772415
C            2.27543753663331        0.22622859709610       -0.28672269167843
N            2.94194596880819        1.35346117817794        0.40082311369810
C            2.07022584490053        2.39852927862510        0.98121613555969
C            1.37347496371475        3.21894025424041       -0.08397608563550
C            4.33077667759243        1.56631060924413        0.24705055761238
C            5.07456242189895        2.25980329659328        1.22212532245408
C            6.41668426144205        2.45903441909186        1.07511043557933
C            7.09706284251277        1.98067366520464       -0.05956706581629
C            8.47549185737868        2.15982021362383       -0.24247599407990
C            9.12071219336129        1.68813142144725       -1.35932436136010
C           10.52435782599073        1.88556978787868       -1.48360005260635
C           11.30043883296563        1.50090887163250       -2.52773235789064
C           12.69931029143248        1.72879586823086       -2.54571407491506
C           13.46082466832108        1.34730112661344       -3.64279170367524
C           14.81589619003873        1.65315060411754       -3.69082944333143
C           15.63034153391291        1.38949668035955       -4.82601435752841
C           15.21710741520627        0.83910632266806       -5.99950032390430
C           16.03866569401388        0.59027053160301       -7.13502153883414
C           15.47024622818806        0.06308215093597       -8.26894524787715
C           16.22821934887861       -0.19605941874001       -9.41963610727068
C           15.66482050890821       -0.72973297972433      -10.59251094743935
C           16.43588186960410       -0.97019811082082      -11.69277345522566
C           17.81720789352950       -0.69443896056371      -11.69149807561574
N           18.61115646952146       -0.95110066661572      -12.82033171409868
C           18.06861492826745       -1.55821074705867      -14.05000422361924
C           17.42017020969637       -0.53141319805344      -14.95486345185870
C           20.05256127013471       -0.64128659539135      -12.86291662381268
C           20.88910280514059       -1.72505405711845      -12.21541168973882
C           18.37102809993106       -0.16075876081271      -10.53024085477992
C           17.61114072133486        0.09416095690747       -9.39660126474423
O           18.22683501246618        0.62566591279055       -8.27301344248145
C           17.48049641167870        0.88238683884616       -7.13781952433418
O           18.00218792510762        1.34788466686640       -6.13570661462602
O           15.40668126067106        2.25425007315311       -2.61885165483272
B           14.73073338949043        2.13436498175855       -1.31912868191049
F           15.24035354893197        3.05365891465890       -0.43871181407392
F           14.92926628303822        0.85668479792006       -0.85034908097494
O           13.28435105382495        2.34101747577664       -1.47981933723576
C            8.33660670887791        0.98683719671977       -2.38770851344816
O            8.89444134851939        0.57431163106218       -3.39384771835996
O            6.97918564942052        0.80193773994601       -2.20123577899654
C            6.36936123840398        1.28674517530124       -1.05346750532102
C            5.00676869515212        1.09073267063077       -0.87464411161232
H            0.74312781044351       -1.28636317183202        0.01208233346256
H            0.30324909256306        0.30272696296414        0.61499487587179
H            1.46543316610096       -0.67823615546078        1.49931108057514
H            1.93623923146151        0.57536376506451       -1.26698956660543
H            3.03688272077300       -0.53661572040124       -0.47915650731701
H            2.67459928049244        3.04894512090879        1.61851951195178
H            1.35095254062462        1.92272114061593        1.65402326640126
H            2.10065442611227        3.67802826432226       -0.75500017908921
H            0.76518901336605        4.01729786914574        0.34551471962876
H            0.71823516725467        2.59855644244562       -0.69607525823782
H            4.58453525113762        2.59614993464585        2.11779455362442
H            6.97314244522465        2.98066183771000        1.83436856548556
H            9.03664813269511        2.67789979183719        0.51405566578728
H           11.02370543736999        2.38541755156509       -0.67095576507674
H           10.84813612123769        1.00508560172172       -3.36661741870442
H           12.97948720762722        0.86352976221816       -4.47064848325153
H           16.66414646008436        1.66733910622903       -4.72778564960737
H           14.17998383920332        0.57386354742380       -6.09692918652751
H           14.41758334965284       -0.15453285444290       -8.28146807251507
H           14.61076368863648       -0.94608397319545      -10.61173273046812
H           15.97645669474093       -1.37280645505218      -12.57672145604564
H           17.36771363913201       -2.35033335494870      -13.76960344111106
H           18.88444652834373       -2.07158773643608      -14.56978267328297
H           16.60964254175977       -0.01157681046684      -14.44331915860085
H           17.00880348812268       -0.98298340468225      -15.85959583547494
H           18.14100758318414        0.22829545995534      -15.25956854550474
H           20.21511612847126        0.33200797792023      -12.38994839686525
H           20.34407044042252       -0.50150666665512      -13.90924253383908
H           20.60639913496431       -1.87088883685346      -11.17250440727292
H           21.95530527067929       -1.49216653347784      -12.24275935402551
H           20.74413982564948       -2.68126916739449      -12.71965551407655
H           19.41783157661162        0.06670635592644      -10.48293361100626
H            4.46792466770471        0.58598564294275       -1.65320445535001
