47
 energy: -9.192317691416 gnorm: 0.000650066571 xtb: 6.5.0 (97a52f5)
C            1.68023908823400        0.14187317416278        0.98091233092401
C            2.40920109901029       -0.17160833209376       -0.30982730004897
N            2.97046770038564        1.03271067071523       -0.96179156315655
C            2.02227101012430        2.11141725936216       -1.31497543236398
C            0.84946197577572        1.63217171234983       -2.14701644520864
C            4.35864526746207        1.18497095296350       -1.15781195449697
C            4.96288805723947        2.45945899201427       -1.12488199994108
C            6.30543931521144        2.60714578020478       -1.31046747714704
C            7.12784272597164        1.49140961259533       -1.54267584967841
C            8.51748881593297        1.60372556755635       -1.73524729799669
C            9.29996736600874        0.51046725105451       -1.95667981744349
C           10.71815755560233        0.69004632587583       -2.13407586610881
C           11.60822554462988       -0.29441036527987       -2.34950397434043
C           13.03682172911934       -0.13281290243761       -2.51632043006711
C           13.82899875581946       -1.25852085931681       -2.75748029956317
C           15.18871980330707       -1.14394433457042       -2.91644739063579
C           15.79991872224019        0.09356135832079       -2.84009677948591
N           17.24725797660213        0.21281775726697       -3.01176452958532
O           17.90956175159118       -0.81652275526420       -3.21548022810658
O           17.76354964580928        1.33937209667139       -2.94843203661280
C           15.03136377166207        1.21757107445187       -2.60215888738609
C           13.67054470379069        1.11103408034119       -2.44206671616327
C            8.66761705845458       -0.81853245803378       -2.00233095390784
O            9.35483284695689       -1.80743329049782       -2.21250314903061
O            7.30362213993807       -0.93107980785204       -1.80772638941708
C            6.54629543614425        0.20641195722399       -1.58031898963403
C            5.17509735914524        0.08206340979480       -1.38619346779698
H            1.32726359003567       -0.76209643411237        1.48132719987943
H            0.81215776165153        0.77761527309725        0.80642647857999
H            2.33430143759515        0.67185961176576        1.67444593383640
H            1.75656416639555       -0.68036383379334       -1.02562454428023
H            3.22670628250624       -0.86806986537631       -0.10510824125230
H            2.57095374371438        2.87677228811045       -1.87165534747224
H            1.68702395685182        2.59149100743867       -0.39056844772997
H            1.19668198541756        1.12255991646555       -3.04667648055407
H            0.20707987796526        2.45746062301169       -2.46024997272425
H            0.22662448902724        0.92782610576258       -1.59546561410413
H            4.35936631045609        3.32169278362971       -0.90561157035843
H            6.75324967561650        3.58518132766138       -1.27355120684400
H            8.96707511628492        2.57965939748697       -1.70229387451094
H           11.07724737632858        1.70161740859987       -2.08299295506748
H           11.23464043134548       -1.30003469841051       -2.40228808549789
H           13.36058898605510       -2.22579690599483       -2.81828719140823
H           15.79729150273563       -2.01226080653781       -3.10229619312998
H           15.51982525292725        2.17528433561565       -2.54480585259286
H           13.09137755053543        1.99690777836532       -2.25519794464823
H            4.74797328437105       -0.89906924036772       -1.46204319572179
