57
 energy: -10.620893590623 gnorm: 0.000416731608 xtb: 6.5.0 (97a52f5)
C            2.46839370608542        0.28203343528488        0.96935381891978
C            2.06057095516322       -0.70682969295992       -0.10363329126361
N            2.58298375156146       -0.34215641869816       -1.43481332269719
C            1.57934183926294        0.10922344318375       -2.41775661573344
C            1.29054768493326        1.59176604971430       -2.31339939943141
C            3.96137772626789       -0.36199635426334       -1.72850958205617
C            4.47241381009810        0.27631398002577       -2.87127365449237
C            5.81031755149036        0.25976910874914       -3.15295988381030
C            6.71699667482577       -0.40221687300620       -2.30584764075648
C            8.09227238066858       -0.44605833686142       -2.56182157986635
C            8.96314315585767       -1.11465476156909       -1.72424960666958
C           10.34451140191181       -1.13779726257331       -2.04022806607189
C           11.29807132334140       -1.80254838424068       -1.31830901766366
C           12.67978528731059       -1.87816301066627       -1.60078969583870
C           13.26681144759930       -1.15760574593772       -2.65105463996887
C           14.60435481529466       -1.26502588932645       -2.91329586242643
C           15.40684719909622       -2.10349442658842       -2.13923774910884
C           14.85139152464607       -2.81052117540379       -1.11910530683463
N           13.51431707894714       -2.70387041153395       -0.83457511780864
C           12.96328141557931       -3.54747438642298        0.24486840648327
C           12.22006985458067       -4.76248358638348       -0.30205105890015
C           11.41511268480070       -5.49865058804350        0.74730341917443
S           10.56856230142927       -6.95830519131888        0.01723802161336
O            9.62017804542998       -7.34728916640280        1.08992934676958
O            9.93741950974721       -6.43559221435992       -1.22335315371286
O           11.69392115842380       -7.90537227103897       -0.19760458142489
C            8.42185039860392       -1.78761410065599       -0.53447120503940
O            9.17672384246057       -2.38652528357358        0.21962068118155
O            7.06372411748928       -1.73347757853137       -0.27880719890809
C            6.22283505373609       -1.05582871704877       -1.15254634994937
C            4.86188906397741       -1.01949913289857       -0.89091708960733
H            2.08634875322857        0.00033181843626        1.95236189666535
H            2.09476965374125        1.28083724930847        0.74226858217457
H            3.55313909494187        0.36034802677795        1.04517657054607
H            0.96948751383085       -0.77384566422456       -0.16273022077562
H            2.40007205252984       -1.71978112076179        0.13340480882036
H            0.66557039930484       -0.47645263981044       -2.27291060551012
H            1.93132178841081       -0.16006860604078       -3.41839757545816
H            0.86699413455261        1.83996793964403       -1.33979799949782
H            0.58431468975499        1.92614897486928       -3.07577312719768
H            2.20260062881840        2.17898662298744       -2.42362796095248
H            3.80343751241421        0.80068390788839       -3.52866492946958
H            6.18516167993522        0.75555827431310       -4.03156949425197
H            8.47452561829692        0.04798937595113       -3.43648140827054
H           10.64693416509376       -0.61049894828527       -2.92582931224573
H           10.95189323758412       -2.33651721258278       -0.45603688713001
H           12.66195257551612       -0.50443828774261       -3.25354871457097
H           15.04273389917309       -0.70329821108392       -3.72165260523999
H           16.45913454256228       -2.19226104721781       -2.35364815075310
H           15.45277018466869       -3.47202110709062       -0.52082534312000
H           12.31195741284604       -2.93435642606611        0.87312522381376
H           13.77748661523012       -3.86381491280427        0.90328731474933
H           12.93488899178619       -5.44661938899875       -0.77656154675007
H           11.55362912603188       -4.45055355762954       -1.11565255568805
H           10.65849809720333       -4.84772876750819        1.18591400068647
H           12.05374314518814       -5.84246445123442        1.56055644208568
H            4.51111772673725       -1.53479689774876       -0.01830942676760
