45
 energy: -8.705120805960 gnorm: 0.000400020640 xtb: 6.5.0 (97a52f5)
C            1.58588110576849        0.20638612114143        0.95101297945362
C            2.32593339154069       -0.17060739165880       -0.31631969571880
N            2.89637343871432        0.99940422812622       -1.02046190747887
C            1.95552806471297        2.06773787983964       -1.42171467966720
C            0.77288442758951        1.55982242951070       -2.22213969772268
C            4.28756116298764        1.14040798524348       -1.20757205518880
C            4.89348212281414        2.41434668242257       -1.23062965600296
C            6.23825384363554        2.55077635995050       -1.41198522206822
C            7.06027158658586        1.42384385707212       -1.58554210222022
C            8.45157695237233        1.52604062075919       -1.77732260676523
C            9.23519882072716        0.42485161584857       -1.94882187500821
C           10.65487049533754        0.60212185165538       -2.13034883407939
C           11.55189479862470       -0.38265974278382       -2.30714565228640
C           12.98293427371211       -0.21505862417025       -2.47734611476692
C           13.78342444335926       -1.34073484362261       -2.68403563851597
C           15.14563043077278       -1.22165938536852       -2.84389950630322
C           15.74165219805732        0.02263431904638       -2.80099879454840
C           14.96924632940242        1.14853318987222       -2.59741302894803
C           13.60603243411493        1.03466770122780       -2.43745365514532
C            8.60365072648585       -0.90602956763230       -1.93856309138500
O            9.28963460864967       -1.90523644519250       -2.10701621431251
O            7.23697432657133       -1.00902072003829       -1.73887792316942
C            6.47773950587554        0.13931999094623       -1.56693925437218
C            5.10455872261740        0.02661213738511       -1.37528574697057
H            1.22389653829858       -0.67122728350167        1.49058263185341
H            0.72217902516927        0.83695388534544        0.73803697036607
H            2.23476948204406        0.76654417707382        1.62581189391764
H            1.67790571432032       -0.71180070731023       -1.01278262062484
H            3.13886084286762       -0.85997304163199       -0.07138608833424
H            2.50720857875969        2.80079219950829       -2.01796835082364
H            1.63012633133415        2.59614618727415       -0.52006189676125
H            1.10800893804034        1.01526211466621       -3.10591153105459
H            0.12783204249235        2.37365720128968       -2.55949112480803
H            0.15500951650532        0.87787341951962       -1.63761754624363
H            4.28850522759753        3.28682984830931       -1.06077029752491
H            6.68796074720972        3.52868529205734       -1.41877422900628
H            8.90110124201654        2.50272084591650       -1.78616002828580
H           11.00832015484907        1.61699125672668       -2.11787349874123
H           11.18797189769534       -1.39264514001632       -2.32362248261100
H           13.32149201704160       -2.31265276015898       -2.71763944784827
H           15.74761000682795       -2.10152389080668       -3.00212670794551
H           16.80821191529960        0.11484519174886       -2.92497938000489
H           15.43505043293162        2.11991741997740       -2.56239845536620
H           13.01858488757722        1.92058857483660       -2.27648398321678
H            4.67506625009198       -0.95597504040303       -1.40490385374729
