39
 energy: -8.282616925216 gnorm: 0.000552554362 xtb: 6.5.0 (97a52f5)
Br          -0.57444940954828       -0.73807683790031        0.31371117680457
C            1.28948685857198       -0.44702854440564        0.19375055734038
C            1.77071861358559        0.68561950707151       -0.43228124480143
C            3.12848668642972        0.90548283804974       -0.51922396944700
C            4.03032894822908       -0.01420926116421        0.02479882695755
N            5.44882869010093        0.21621444187212       -0.05098072445938
C            6.12260641952881        0.92493461432259        1.02514509524968
C            7.45386231743980        1.20539104147549        1.00690941133292
S            7.97429143226197        2.04432306470893        2.44869133043884
C            6.36517299045050        2.04624081940920        3.11559684941821
C            5.94315816898758        2.57629832268435        4.32635514764933
C            4.61730468808890        2.48392741436872        4.67495979694175
C            3.71028342155511        1.86581804606306        3.81915995043106
C            4.12370905429117        1.33889129353887        2.62205319194093
C            5.47507776363203        1.41474449704886        2.24054693209436
S            8.60189974533955        0.81745766317140       -0.26639989257236
C            7.54089462768790       -0.09000963756813       -1.33437063528942
S            8.16885717737907       -0.84965640478485       -2.77710613645461
C            6.60201183311274       -1.46730448754023       -3.22134419428565
C            6.26719775610943       -2.22763141633142       -4.33256592874056
C            4.96201437400190       -2.61800468760796       -4.51142221980039
C            3.98917423518952       -2.25178095253625       -3.58582223696980
C            4.31617568866452       -1.50132516832478       -2.48504530781955
C            5.64415423642033       -1.08978859723443       -2.27440851149399
C            6.20459054724938       -0.29582297119814       -1.18280854324480
C            3.52632072594887       -1.15787020729933        0.65292648152007
C            2.16641603258989       -1.36655815470954        0.73387429015608
H            1.07162709692644        1.39241583933614       -0.84836903576058
H            3.51346104708088        1.78585229544168       -1.00261007018965
H            6.65822395144897        3.05270715506145        4.97448291366521
H            4.27785446749335        2.89216185687523        5.61261402850841
H            2.67225038407951        1.80154664462723        4.10152120931848
H            3.40780977036333        0.87123780710803        1.97648445462472
H            7.03229189461767       -2.49971070203359       -5.03891901228594
H            4.69011330759158       -3.20853758000482       -5.37078648868262
H            2.96836368150953       -2.56204848642146       -3.73735191996486
H            3.55103306132887       -1.22713748126251       -1.78681096811207
H            4.21816345761910       -1.86664584163842        1.07246329839698
H            1.77315425664393       -2.24426774226934        1.22004209758633
