72
 energy: -14.272935403337 gnorm: 0.000601907857 xtb: 6.5.0 (97a52f5)
C            0.91513930002217        0.84124254873978        1.17702006298205
C            0.19318175703013        1.68185535079464        0.41918096976530
C           -1.24514230317692        1.67989954550440        0.42622892127129
N           -1.98578437186158        0.86070118153457        1.17590475616867
C           -3.24833250738623        1.16415599709744        0.89883243710451
C           -3.30057535811370        2.19690831050381       -0.04584273331709
C           -4.49434991551800        2.81622121687487       -0.61807956029324
C           -4.35711552673318        3.85800692413021       -1.52087004924838
C           -5.46579274553320        4.44774253939658       -2.08466338172365
C           -6.75484882336971        4.03282108189370       -1.76963081686115
O           -7.80113610286035        4.72018691413738       -2.40484357687516
C           -9.11100686763077        4.37313977463806       -1.98043256936409
C          -10.15280149061523        5.34083736778165       -2.44402511267937
C          -10.84556563364056        6.12118748306900       -1.53263185877220
C          -11.79020092835105        7.02856500792924       -1.96360590430691
C          -12.04719504841653        7.16854667583937       -3.31162357481493
C          -11.35630299703708        6.40198631068013       -4.22721693957839
C          -10.41230939785168        5.49344262952653       -3.79405914718385
C           -6.91170289005970        2.96710736530367       -0.83626575843817
O           -8.19148509541591        2.49041213801241       -0.47258714517610
C           -8.45444313890785        2.52638860638677        0.93749732901373
C           -8.81312810298364        3.89450216539800        1.42863297231509
C           -7.84199397465567        4.87563993879358        1.53032155079763
C           -8.17633071499942        6.15953140356964        1.90779405698568
C           -9.48931814294072        6.47638383816137        2.18734098258782
C          -10.46633519894371        5.50824568569184        2.08591149014385
C          -10.13055209419768        4.22597993396583        1.70311699739732
C           -5.77722329357199        2.38304463304374       -0.29306097581930
O           -2.01089107793137        2.52578611468619       -0.34418331141306
C            2.36374914531016        0.77228314740073        1.22929852243771
C            2.98038528040465       -0.19565528392168        2.02681811596044
C            4.35395512475893       -0.28428934600278        2.09316658450726
C            5.14247461445656        0.58565047233654        1.37388244118952
C            4.56493143449661        1.56880201105640        0.56892195416433
N            5.36633678949505        2.46761233201072       -0.16473028267794
C            4.84620963859163        3.50047140562182       -1.09683342176765
C            6.06905445688821        4.16349716359578       -1.75443059872437
C            7.27084777787533        3.80237551687565       -0.85855555508981
C            6.84732585198134        2.54291379730884       -0.08343837293340
C            3.17610466323639        1.64338299809417        0.50790783268603
H            0.37494430867527        0.15166057146876        1.80035826083436
H            0.67677349290517        2.38702868452087       -0.22879333194439
H           -4.09609580280372        0.66837545787586        1.34565209696022
H           -3.36741723551575        4.19430811430454       -1.77803365212499
H           -5.35240446209100        5.25458234533980       -2.78683709245013
H           -9.10427584874262        4.33705548728414       -0.88922619361732
H           -9.32837844454626        3.36293556439643       -2.34324292090776
H          -10.63624809545346        6.01280505140961       -0.48267126311186
H          -12.32576911991501        7.62932871975506       -1.24690156792847
H          -12.78424046294243        7.87859724235671       -3.64963953689185
H          -11.55150670142541        6.51495521573911       -5.28096207526971
H           -9.86154760342358        4.89903546656402       -4.50278400481790
H           -7.58671868562598        2.14221041346379        1.48095022539371
H           -9.27571493575551        1.82714192866727        1.12684279853305
H           -6.82204788256514        4.62921325093650        1.29066229931859
H           -7.41205595964219        6.91601259078935        1.97879173947549
H           -9.75178569800707        7.47958989359356        2.48137673637783
H          -11.49359096719446        5.75472557175647        2.29977290965730
H          -10.89505085217488        3.47467909079957        1.60267012244172
H           -5.89439909252850        1.55276812596145        0.37640831053776
H            2.36827501561175       -0.87828832007753        2.59081843840629
H            4.81322494134298       -1.03942341297598        2.70997587842166
H            6.21378981530615        0.50724717486386        1.42471798052036
H            4.25753508474456        4.22147514647634       -0.52188353845553
H            4.18212267002228        3.03314281262029       -1.83036033970622
H            5.94137275166920        5.24822818665438       -1.85790557742420
H            6.21787540384431        3.76850490043124       -2.76629386897262
H            7.48563935287601        4.62233512450061       -0.16318707676956
H            8.18616492796925        3.63770974313714       -1.44048522904207
H            7.15841041093135        2.57739662440982        0.96514504654572
H            7.26563592712121        1.63501054776356       -0.52806833910656
H            2.72753165545736        2.39661978788262       -0.10959456547702
