44
 energy: -8.233410469963 gnorm: 0.000359875418 xtb: 6.5.0 (97a52f5)
C            2.15875053391303        0.76120111920824       -0.34170203217219
C            2.12263515489878        0.65522891516821        1.16938956953194
N            2.80008297654932       -0.55893297305500        1.66651648491168
C            1.91709980662409       -1.60319956599463        2.22260992817963
C            1.41592505401744       -2.56406438415676        1.16506372517481
C            4.19069118087456       -0.73697982760425        1.55954737929259
C            5.03941453261218        0.34146150250638        1.24007040041986
C            6.39015164902594        0.17264770411516        1.13808802108754
C            6.97549562172851       -1.08523556001270        1.35139330422503
C            8.36010552695665       -1.31163253190407        1.21807263732116
C            8.90364647555696       -2.53889360835662        1.44363845556746
C           10.25713162336677       -2.69941090056717        1.12123430986347
N           11.36666901980486       -2.77718126346461        0.78431786090770
C            8.04238408506970       -3.62389485835729        1.85542774493135
N            8.50422511633051       -4.82534722425715        2.19469120444761
C            9.70939896595620       -5.11892946569580        2.76687361192921
O           10.37080113485857       -4.32300013210356        3.40128789935197
C           10.19052776773465       -6.55545241348275        2.63407154258136
C            9.77245609522128       -7.14888225256324        1.29171212734426
C           11.69978045185346       -6.64087819786107        2.83061284778132
O            6.67149894837334       -3.44568412724720        1.88359279186627
C            6.14732491452184       -2.18215127401540        1.67062218414123
C            4.77323834263884       -1.98164994044378        1.76976675414446
H            1.66606088049319        1.66666543235035       -0.70127778108833
H            1.66255631929596       -0.09192532400098       -0.80528074893643
H            3.18329733768438        0.77109129627757       -0.71435817804523
H            1.08714159968360        0.64860951130021        1.52441301747282
H            2.58433670151446        1.52633456397248        1.64430380499315
H            1.07992460814804       -1.11477455098971        2.73197923729361
H            2.46054308633527       -2.12828728069654        3.01433214576049
H            0.80852508925039       -2.04619647500251        0.42216493369488
H            0.80521620299728       -3.36171404223182        1.59251650171233
H            2.24496021038739       -3.02929444178422        0.63099299233493
H            4.61783777908448        1.31796705890647        1.08641063445039
H            7.02382238986107        1.00694918965492        0.89122390684739
H            8.99301649735325       -0.50474564636684        0.89368380350525
H            9.69905880170542       -7.12533611098080        3.44017718252184
H           10.22849981548557       -6.59439130293336        0.47224287902412
H            8.69165034364934       -7.09868297854327        1.15798450141346
H           10.07841077422949       -8.19148932459051        1.20020088160317
H           12.21470300944616       -6.07593474807196        2.05449937769035
H           12.05585938042632       -7.67082983160880        2.78805728946730
H           11.99336104598226       -6.21493931509895        3.79052252059808
H            4.16465314849989       -2.83321441941474        2.00260234485231
