45
 energy: -5.922757098256 gnorm: 0.000736668493 xtb: 6.5.0 (97a52f5)
C            1.73806204284552        0.67509307657014       -0.06590821473238
C            1.56944127751205        0.23667557741233        1.30097670311484
N            2.15911001097677       -1.04899245530137        1.60088842308695
C            1.30092997954457       -2.20531874403093        1.47339500957217
C            1.43199056875744       -2.91825110530060        0.22044600559106
C            3.48119298598877       -1.19505679544339        1.85581400048100
C            4.39585050515308       -0.22844854303906        1.96354006854943
C            5.66813661725005       -0.39753930115690        2.20792055657455
C            6.27867462219354       -1.57224984448623        2.37812812950932
C            7.56836195430002       -1.80538569281228        2.68420136148789
C            8.20889927076465       -2.96805376872813        2.84820464081460
C            9.53277376209653       -2.82896743140355        3.28461275927902
N           10.60953444099921       -2.65715202011281        3.68817808884108
C            7.56694080034480       -4.27040642432816        2.77900721677410
N            8.24583523898391       -5.41157979310144        2.78225568029303
C            9.52939260980429       -5.63076340693592        2.35489804576337
O           10.09935132591326       -4.90090135287697        1.55815877786965
C           10.19242196263792       -6.80859249287238        2.84657626147581
C            9.68883257254119       -7.68320871202166        3.69468571048332
C           10.26517609409845       -8.76824817430784        4.16383989769251
C           11.46609755336488       -9.20512321949183        3.88093462805827
C           12.27280450232275       -8.57476373254562        3.04072754887310
C           13.39082041691081        0.14378658682435        8.15266937333026
O            2.95971909861034       -2.66314714187002        4.99981738153262
C            6.21438743828277       -4.29904335176612        2.75251929558500
C            5.72390231424534       -5.50137572128260        2.84420985465923
H            0.51548195607129        2.39161715527211       -4.27413100774479
H            1.23296641721428        0.03177627778160       -0.75762339036962
H            2.76883079964449        0.75756232949586       -0.34815569901659
H            1.68295329889752        7.04345742600078        2.17474430464104
H            1.86946044339009        0.97440211155426        2.02440853881554
H            3.05310738931957        2.31182161874610        8.56340674658385
H            1.38658066494537       -2.83426454995417        2.34311133182983
H           -2.71947667797275        1.68722541113491        2.42160857900605
H            0.70573537353388       -3.69739513202058        0.09676508294668
H            2.42037459297356       -3.29777157681313        0.05334959301893
H            5.97795257841206        3.53485985312193       -0.36152811464601
H            9.45516616571012        6.55740480996347        0.32973871253870
H           11.83025720458930        1.37762372343215        1.98441517067892
H            7.29752497991941       -8.90852139115491       -0.00631965333767
H           10.04340294116892      -16.87226877388278        2.09275770166516
H           13.56250747532453       -7.76789635947526        1.83190526528791
H           14.14603848121468       -0.24104769363932        8.72544671451597
H           11.65503157325345       -3.60269422962527        1.85775854863052
H            4.84972437739289       -3.38187708382708        2.58600435948826
