54
 energy: -8.976060193322 gnorm: 0.000297431371 xtb: 6.5.0 (97a52f5)
C            2.22484219479032        0.42960975387395        0.39505189701851
C            2.23893815636241       -1.06530742827016        0.15093267651047
N            2.93048856008840       -1.42453354559508       -1.10274468895231
C            2.06315601837876       -1.90576143149894       -2.19631546817782
C            1.52585801451427       -0.77884758117387       -3.05213085246633
C            4.31510954541750       -1.26323836989780       -1.26586588650711
C            5.15805915738145       -1.02449677267692       -0.15713408225775
C            6.50273705443655       -0.87763394946662       -0.31019686291310
C            7.09693989872847       -0.95463132803892       -1.58415059504892
C            8.48072036607761       -0.81468469167715       -1.78629101880307
C            9.01498039534981       -0.89258147660068       -3.03515748542048
C            8.14887723325604       -1.11150279566525       -4.14225243354631
O            6.79979309376802       -1.25428053668434       -3.98418988937538
C            6.27450194483708       -1.18340263256323       -2.70895655913380
C            4.90093047960708       -1.33753200035717       -2.52098234195957
C            8.66224072222071       -1.18201795006344       -5.47557773475627
C            7.75900201636062       -1.30698112832384       -6.49240957418065
N            8.04470825281433       -1.33790301780876       -7.82258506567224
C            7.13119103576560       -1.43121427343356       -8.89821477697677
C            5.75472682097760       -1.49018306656263       -8.69279558596142
C            4.88774602267822       -1.56664572209722       -9.75891304708579
C            5.37473062029113       -1.58707109331266      -11.04962238681305
C            6.73538007471346       -1.53160231745296      -11.27107389358923
C            7.60546096970013       -1.45436893825449      -10.20781486552076
C           10.13799051286106       -1.10958773228342       -5.73956829838883
C           10.99570394922699       -1.44736228587788       -4.50659930054038
C           10.49270257779837       -0.72916164817636       -3.24390163239333
H            1.71948352629257        0.68794501662697        1.32742078741107
H            1.71481756446528        0.95250310571578       -0.41425727982585
H            3.23652335326857        0.83259596091979        0.44335166233295
H            1.21607001651168       -1.45270018470905        0.10975593405162
H            2.71783681504133       -1.60239922830110        0.97508237904026
H            1.24417592454095       -2.48637119876638       -1.75980061239790
H            2.63035987230641       -2.62552979079226       -2.79441957964507
H            0.89801226920969       -0.10758095497500       -2.46571965913375
H            0.92522030496463       -1.14844021647801       -3.88537180204983
H            2.33595539298972       -0.17782707380749       -3.46584816945422
H            4.73179008783604       -0.97548174726895        0.82797493681096
H            7.13029659291971       -0.70252766637869        0.54622995447742
H            9.12079219301525       -0.64028538749825       -0.94053061064618
H            4.29813408453060       -1.50122699894066       -3.39230541285701
H            6.72526068127926       -1.36398835633607       -6.20838616583876
H            9.01972049769319       -1.24998856418935       -8.09084019707182
H            5.36372515403945       -1.47217886900197       -7.69231486935798
H            3.82498739304182       -1.60933108822805       -9.58551685134260
H            4.69384124064002       -1.64591983647425      -11.88271265457681
H            7.11707460838409       -1.54788961401168      -12.27864919426729
H            8.66634161133314       -1.41014537394527      -10.38054206512994
H           10.38226470810433       -0.10329957577239       -6.09778443906211
H           10.38939926174598       -1.79144968988164       -6.56013036056185
H           12.04896416982509       -1.19788874535483       -4.69368256695528
H           10.97629190248446       -2.53059964760328       -4.33728260991857
H           10.72193789720930        0.34041189102048       -3.30910404161377
H           11.02597718790845       -1.09508220560404       -2.35806675950481
