84
 energy: -16.687215939000 gnorm: 0.000451722648 xtb: 6.5.0 (97a52f5)
C            3.92158381287908        0.12420452140421        1.32625921197371
C            3.01967040284917        0.87202907240836        0.36597826000850
N            3.27715580243006        2.32599794026564        0.36179688423790
C            2.26467035395955        3.15715202269031        1.04329684265283
C            2.57949517263713        3.37477678468290        2.50827944894387
C            4.45469989740544        2.87634050309982       -0.17687704592272
C            5.34302681723381        2.08490330746045       -0.95030733225571
C            6.47708429624426        2.60624356890117       -1.48628026632165
C            6.81220251840794        3.96689526000912       -1.28836928416496
C            7.96816261756208        4.54879846508924       -1.83289403528617
C            8.27132980996767        5.87459591406537       -1.63624665475593
C            7.40808720740505        6.68555200545175       -0.85441456468302
C            6.28268838384812        6.13090389669393       -0.31384922584017
C            5.94446980617941        4.77323217440204       -0.51631974794549
C            4.77879899709808        4.20717645823526        0.02266792241685
C            7.70749993527759        8.16381373130869       -0.57264824140577
C            8.05865569563631        8.29823194001830        0.90705044441599
C            9.15419542256807        7.61985940251842        1.40986220294088
C            9.51077052661842        7.71880639032624        2.73885977403777
C            8.76559643818367        8.50731922455483        3.59015544765008
C            7.67280944504179        9.18919460864946        3.11030988157140
C            7.29820487940234        9.10101864740080        1.76847631581099
O            6.17934231641339        9.82330811944966        1.35177772843507
C            5.78405686712097        9.74045336115828        0.01623900258574
C            4.65511069504672       10.45949760001602       -0.37952692695806
C            4.20987560506058       10.42537658005498       -1.67951462453468
C            4.88354380002685        9.67025061966442       -2.61640581809282
C            6.00107490271033        8.95299445088082       -2.24237163943920
C            6.46466048593123        8.97377109595616       -0.93943285406718
C            8.88539703330910        8.71362795264538       -1.38765751602674
C            9.14297190854180       10.05453394484764       -1.34242630053868
C           10.20948098954505       10.63772736966409       -2.06424925166228
C           10.45744678000671       12.01906970314099       -2.04249928429109
C           11.49468733034828       12.58481180552347       -2.76347560454027
N           11.71600145436840       13.97340306567354       -2.74870516208583
C           12.85238760350458       14.60233523255393       -3.44793674052483
C           12.56309273747557       14.83987082339509       -4.91540780315054
C           10.81474700844665       14.91229252147748       -2.05378708829085
C           11.15390946226765       15.05169018058835       -0.58450876634980
C           12.32195159481378       11.72142614950022       -3.52731793984269
C           12.10700589859884       10.38072973571119       -3.56579455930694
C           11.04183888318003        9.79749331808472       -2.83920689141926
C           10.77321439152418        8.41964233882274       -2.86590484099739
C            9.72247164677494        7.87456188340274       -2.16805836788256
C            9.48724655453901        6.42500598307148       -2.25466692727078
O           10.27455094879085        5.69892995817135       -2.83752432571483
H            3.73749287945441       -0.95202739528694        1.30881956277343
H            3.77387640935478        0.46779352385457        2.35065512035438
H            4.97369368411201        0.28391830353799        1.08821553613472
H            1.96867327452116        0.70203947760813        0.62161303683114
H            3.12824585401478        0.49927597120534       -0.65746043485287
H            1.28495828173739        2.68239137614122        0.92489627481625
H            2.18126723068901        4.10821005571501        0.50760218418060
H            2.58673287758397        2.42946274014760        3.05200642983388
H            1.84980340638374        4.02724454275981        2.99232706912700
H            3.56454079628406        3.82441950571037        2.63825105075080
H            5.10558510783976        1.05151752774436       -1.12615964158027
H            7.13548819756685        1.98961327997497       -2.07348049939893
H            8.63283735032999        3.94742046944874       -2.42579153160672
H            5.63282687035340        6.74476678521009        0.28308314345757
H            4.13575852409496        4.83461168915772        0.60953218463402
H            9.73436863342683        7.00654980884421        0.74206497157784
H           10.36941573897673        7.18328204857389        3.10940846229916
H            9.04033078967162        8.58956325839864        4.62910852761200
H            7.08394695721725        9.80830502378051        3.76367247662616
H            4.13861112980319       11.04462897925227        0.36057245028365
H            3.33625927292189       10.98765834994881       -1.96636783275886
H            4.53871260998984        9.64011947429571       -3.63695253468211
H            6.53008021533781        8.36204531078956       -2.97037496254343
H            8.51268811805446       10.68732202927274       -0.74428401639324
H            9.81819069931074       12.63956072049218       -1.44414518996547
H           13.73915064165547       13.97615675470315       -3.30850988876150
H           13.08776746942643       15.54540270904774       -2.94292667557180
H           12.33086965140482       13.90592022819360       -5.42850574680842
H           13.40736864978343       15.30157521866136       -5.43153341380753
H           11.69903056459005       15.49375369226164       -5.04169107056767
H            9.78204616722453       14.57984216198982       -2.19876607199755
H           10.87326076169220       15.88297487904812       -2.55793892654585
H           11.09852579301944       14.08967909502618       -0.07372685981297
H           10.48007884240172       15.74010739623095       -0.07031214947217
H           12.17152893362063       15.42229889338133       -0.45331827352560
H           13.13186013743279       12.13878641085016       -4.09732619787455
H           12.74247600648784        9.74398959383126       -4.15678858972903
H           11.39864633508632        7.77140047715023       -3.45210170922961
