51
 energy: -7.933246128839 gnorm: 0.000375071287 xtb: 6.5.0 (97a52f5)
C            1.02142090282365       -0.22490508484662       -0.67752930470059
C            2.25345771994029       -0.14432339364415        0.20144514874708
N            2.89404757636178       -1.45392353345986        0.44538417220647
C            2.03145688496169       -2.56246388058098        0.90888258998701
C            1.37422045253921       -2.27184528296016        2.24201795377623
C            4.30613907541644       -1.58307698507336        0.43711332145871
C            5.13292558767131       -0.50798395000295        0.79887434879585
C            6.49622991783429       -0.63324822203458        0.79935661300374
C            7.11029293893792       -1.84442662718499        0.42972588650936
C            8.49726899589582       -2.00356637702108        0.41575164696121
C            9.06862519408790       -3.21920818340433        0.03510041068546
C           10.46213783491306       -3.41876930569077        0.00894346123864
C           10.99162337708803       -4.62177183100094       -0.37318316055165
C           10.16134662192027       -5.68737093943558       -0.75478487058117
N           10.71724405831689       -6.94229063115701       -1.15855389671196
C           10.74613249800700       -7.35555464747241       -2.58008076173169
C            9.40421375587988       -7.25546158031003       -3.27193034116011
C           11.68640858097431       -7.63719352956010       -0.28600730649619
C           11.08460069631045       -8.87377475209562        0.34506966062901
C            8.77834679807616       -5.49819539241000       -0.72282533623820
C            8.21139634171186       -4.29388191991290       -0.33957080615080
O            6.82839454429209       -4.16530991297250       -0.32898128907811
C            6.28743154816374       -2.94473309801810        0.05445539033919
C            4.91088114260326       -2.78699458209986        0.06949158425300
H            0.61930079836975        0.76359476181502       -0.90717895385438
H            0.22462585551958       -0.79549990918138       -0.20029454609927
H            1.25191755710084       -0.71617668203928       -1.62350016301505
H            2.02209355425821        0.30938268299148        1.16990491073308
H            2.99629406109223        0.50617433754486       -0.27057565796258
H            2.64099145458217       -3.46671819129983        0.98742924168960
H            1.28910319591004       -2.77256123267467        0.13339945166596
H            2.12386280250280       -2.04274452896798        3.00027381261358
H            0.78501223746332       -3.11773041667004        2.60087893476278
H            0.70741337234769       -1.41182269909060        2.17841564532586
H            4.68182436663363        0.41567812615216        1.11394583934681
H            7.11583805844347        0.19749770852268        1.08871298957342
H            9.13037037973403       -1.18298829735930        0.69805172180246
H           11.11035641906162       -2.60764106623573        0.29093904372281
H           12.05785846269898       -4.75748768554959       -0.40838725447610
H           11.12199820242221       -8.38235390693186       -2.62881463802701
H           11.49124844352775       -6.73352770414153       -3.08645803288847
H            8.65648263860802       -7.86378255545431       -2.76220290951711
H            9.45320374221423       -7.59290154228815       -4.30889397075104
H            9.04174076588285       -6.22702557731187       -3.27991383635676
H           12.01825624591251       -6.93592288904933        0.48576219301241
H           12.57612248367306       -7.88260822780727       -0.87458483210360
H           10.20419498196379       -8.61653230204388        0.93511704738983
H           11.79058162915011       -9.38453385780886        1.00241301011573
H           10.76310875855912       -9.58537658081291       -0.41598593384670
H            8.12777719349724       -6.31251693672057       -0.97663324346008
H            4.30659929416127       -3.61260118524350       -0.25282498459066
