31
 energy: -5.745334827017 gnorm: 0.000931305799 xtb: 6.5.0 (97a52f5)
C            1.54060752771995       -0.16354465666722       -1.02651822627911
C            2.41847111258617        0.07370893403296        0.18532269594604
N            2.95343453378300       -1.17678206282232        0.76698059051603
C            1.97894292008344       -2.21003785931107        1.17983642690923
C            0.92419869471019       -1.68860035550243        2.13516877649035
C            4.34607511474105       -1.38581881830367        0.90683042438037
C            4.90068531973507       -2.67414421137504        0.79008267843875
C            6.24481205493390       -2.87617700312513        0.92639063431365
C            7.10903478895329       -1.80462383104433        1.18936428734677
C            8.50976940508884       -1.97426814162533        1.34660726382213
C            9.29245895070610       -0.91696496330076        1.60520981063815
C            8.74290775359044        0.41604069926542        1.72999629815515
O            9.50436881378253        1.34633906629779        1.96859573665137
O            7.38163376278421        0.59788284975161        1.57745262588480
C            6.57809979699930       -0.50456447791480        1.31024532676586
C            5.20541394317692       -0.32414383850064        1.16287391288928
H            1.21285061307799        0.77290318102170       -1.48249134567028
H            0.64601276460950       -0.73075259295940       -0.76863288281041
H            2.07679148380561       -0.73360269532159       -1.78617442943993
H            1.88124876826583        0.61694601225348        0.96856101477966
H            3.26189922079622        0.71125037700450       -0.09535843308845
H            2.53047523102010       -3.02641872945862        1.65625301888603
H            1.52685477616973       -2.63708026423254        0.27902538256035
H            1.38709186838981       -1.23094219390900        3.01053283890997
H            0.26364062633209       -2.48326323848080        2.48707086986492
H            0.29855375151121       -0.92939463540151        1.66526613301809
H            4.25857435847834       -3.50297686467363        0.55147250053109
H            6.65637491574227       -3.86587826820458        0.82856931313393
H            8.93079494911156       -2.96084855370829        1.25849585191704
H           10.35377568509127       -1.03389424623581        1.72863463259449
H            4.81298649422443        0.66540138245170        1.29628627194679
