42
 energy: -8.380296336364 gnorm: 0.000667395915 xtb: 6.5.0 (97a52f5)
C            1.57835382923629        0.69602265274634       -0.52838673354977
C            2.46724823413237       -0.19450998951099        0.31640726643951
N            3.00293363874753       -1.35577883819120       -0.42833829934129
C            2.02340305674001       -2.24686310781192       -1.08924263570928
C            0.97110740442689       -2.78385929205523       -0.13990709814831
C            4.38977295777503       -1.59934410728475       -0.51022525326491
C            5.25851391888827       -1.22530417803328        0.53630848989315
C            6.59842685710574       -1.45989950499722        0.45559032040038
C            7.17118776449617       -2.07770319780734       -0.67095001583022
N            8.50913988339576       -2.28439131826476       -0.70523579765242
C            8.99187687084859       -2.85812429477596       -1.79019599924801
C           10.41926507502285       -3.09833320657807       -1.87516158244810
C           11.26682330887905       -2.73493221736694       -0.82559665652906
C           12.61760620657180       -2.95998897565395       -0.89970043605373
C           13.16201830958554       -3.55574707530815       -2.02734516248139
C           12.34895634560033       -3.92118459191480       -3.07167439336261
C           10.97693361465805       -3.70195378979649       -3.01599280452764
C           10.11497255900273       -4.09517883883181       -4.13369438871037
O           10.58537000183432       -4.62409498068506       -5.14516943854331
C            8.72558715744423       -3.84480358683201       -4.00595370615261
C            8.16380381013630       -3.25319980172454       -2.89166811967306
O            6.80724487032271       -3.05563783733359       -2.86420026043340
C            6.31306212119674       -2.45866850943376       -1.73192930517943
C            4.94522081122970       -2.21498992939745       -1.62462594512953
H            1.25138715583373        1.58298124375268        0.01795075032648
H            0.68323545578694        0.17027721488303       -0.86044168644261
H            2.10516640879797        1.03209901878002       -1.42208767410121
H            1.93931904116864       -0.56452181758109        1.20038858317708
H            3.31126481776945        0.38964358946343        0.69433371919850
H            2.56835907771659       -3.08314239507820       -1.53679286864047
H            1.57001214577565       -1.70337129049362       -1.92368436029315
H            1.43624083227677       -3.29128196912376        0.70623621987452
H            0.30530210916319       -3.49745462857519       -0.62964509014583
H            0.35030207678434       -1.98420015042791        0.26491580192644
H            4.84758295679488       -0.78832299551902        1.42868483998490
H            7.24994867608404       -1.17786125480150        1.26381825377114
H           10.83743474535621       -2.27343340463590        0.04617803405388
H           13.25760284916850       -2.67422208952440       -0.08127829085065
H           14.22374603779999       -3.73142180382574       -2.08320989293869
H           12.76075426481031       -4.38403571176664       -3.95195884955918
H            8.08180922674005       -4.12892717474247       -4.81523536685935
H            4.32386351489855       -2.47820586394199       -2.45863416724610
