50
 energy: -9.745863932463 gnorm: 0.000558610761 xtb: 6.5.0 (97a52f5)
C            2.64419905289652       -0.04579756256532       -1.02463085395517
C            2.24656524504658        0.18906393745363        0.41758874604283
N            2.80606985359753       -0.83636782652844        1.32099277571195
C            1.94312124438191       -1.18294764611650        2.47837435020557
C            0.66222385800726       -1.90666009550411        2.10541427284698
C            4.21496740300712       -1.01573768942708        1.40954148128532
C            5.07152166310530        0.07278371966514        1.31693823107131
C            6.43725904694282       -0.06989011527896        1.48504304564389
C            6.98535342864580       -1.29695021396990        1.74591557471799
C            6.18222840950574       -2.44726043930798        1.82921541537928
C            4.78456402372153       -2.30949324500162        1.64162100669978
C            3.97929484002861       -3.46731597820684        1.64305299562346
C            4.51058645741752       -4.69858527397631        1.86253001123594
C            5.88342032643690       -4.86386791823807        2.09155580623319
C            6.42222630414080       -6.20331240208169        2.32905860647769
O            5.65491185780246       -7.15677260917071        2.32481352392333
O            7.77366335928692       -6.35338987557664        2.54902485692216
C            8.58907836006509       -5.24104806666625        2.54409573191420
C           10.01774931158051       -5.48633411347896        2.79250993957633
C           10.49679298379519       -6.78802419975809        2.69640878268156
C           11.82355556368298       -7.07282902036795        2.92228342743829
C           12.70260287166807       -6.06435916249875        3.25929493526646
C           14.17765641884689       -6.37932369284230        3.48517730332975
F           14.27961653265236       -7.58899139630476        4.06468312117994
F           14.79761373127883       -6.38206096525253        2.29183897404242
F           14.71012432633348       -5.43654882844445        4.28351277979668
C           12.24112132982096       -4.76778606348390        3.36366756138577
C           10.91489547397321       -4.47724214781434        3.13814456492330
C            8.10471221264753       -3.98442436069804        2.31261719690103
C            6.73256542661968       -3.75924541352633        2.07905018511709
H            2.22544589088623        0.70736800370304       -1.69493517937732
H            2.30235017340733       -1.02432133761716       -1.36494102256460
H            3.72844073288876       -0.02760994937520       -1.14105304093831
H            1.15731981848021        0.18748269948927        0.51430430362676
H            2.56941557935850        1.17447046783722        0.76708586500751
H            1.72343689362151       -0.25428409097034        3.01539612709576
H            2.54016320219299       -1.78626786011351        3.16984351490529
H           -0.00298066743270       -1.27387776011604        1.51826557372530
H            0.10615051952655       -2.22531783380690        2.98937945856876
H            0.86442584306307       -2.79440058131811        1.50659196452898
H            4.66124492662963        1.05235576190876        1.15085554148554
H            7.07392130105233        0.79747802041542        1.42045289273196
H            8.04905930565696       -1.37516582383413        1.87525133972987
H            2.93133999347457       -3.36717231748088        1.43328153925729
H            3.88498194974019       -5.57499995357605        1.86008233223922
H            9.80389051190263       -7.57218515231496        2.44154609764233
H           12.19244470637294       -8.08171594780910        2.84400974014230
H           12.93659581617736       -3.99016229148191        3.63166784070329
H           10.56949509885093       -3.46530272446498        3.25204473572976
H            8.78580748721087       -3.15796266410904        2.29320602614406
