59
 energy: -9.784161166620 gnorm: 0.000324400913 xtb: 6.5.0 (97a52f5)
C            1.74676364405429        0.61746825863697        0.01081702079834
C            3.05237294003011       -0.14103657309170        0.09667893905614
N            3.23598755338088       -1.04031772477780       -1.05353685870144
C            3.73589329957361       -0.69044562118032       -2.27330748395454
C            4.23062932035142        0.56846663597401       -2.58181592160214
C            4.72846597538478        0.97330233717467       -3.80819547307030
C            5.27549943757187        2.22737954876982       -4.01831589959629
C            5.74993838813156        2.71906557896679       -5.22796781509949
N            5.55165754440284        2.22529313518492       -6.48655541964048
C            4.61378465545519        1.17835710910622       -6.88342631866017
C            6.23754910801887        2.99673200139033       -7.47065336658037
C            6.33536096282871        2.82535139144670       -8.84449860996935
C            7.07414433030527        3.72980194036679       -9.57746531339016
C            7.71166544634088        4.79195737365731       -8.95708596200844
C            7.62194901551720        4.96471077604464       -7.58805819051608
C            6.88431833779636        4.06344444729107       -6.84976961188243
C            6.60947307127673        3.98548093333763       -5.35297783645087
C            5.83117012163747        5.22292556124601       -4.88440850021530
C            7.92217642695109        3.82688568004270       -4.57251459093574
C            3.64985729799745       -1.93038808171322       -3.17951695268928
C            2.72026457322400       -1.68739158913362       -4.37793941517085
C            5.04539833004616       -2.39331687054891       -3.62322144719107
C            3.02583074066374       -2.97735470348326       -2.25858338397505
C            2.68618233583137       -4.29424454115484       -2.48749855754705
C            2.10600912837013       -5.02264864776180       -1.46512464205455
C            1.86596422838264       -4.44007533383102       -0.23119539717523
C            2.20249694830821       -3.12394168197310        0.00407996012469
C            2.78862856727210       -2.39067457873521       -1.01772836806559
H            1.60012935350963        1.28320643963140        0.86325283640087
H            0.90094039375774       -0.06994513252978       -0.02580240381936
H            1.70608877661366        1.22172221560427       -0.89602404238969
H            3.10148206864303       -0.73807057240397        1.01219923114547
H            3.90714145696713        0.53970328533133        0.14935866717789
H            4.23012289452410        1.30145475773891       -1.79639942159178
H            4.73934570164247        0.27098397382416       -4.61611526167115
H            5.38971563008004        2.86067056655271       -3.15593095257378
H            3.72381130610388        1.21621190506791       -6.25954094789010
H            5.08359303849759        0.20089371608696       -6.80108509770276
H            4.29710613913659        1.32434634306988       -7.91296611329089
H            5.85017197343722        1.99369131665175       -9.32232819393036
H            7.15727360261000        3.60844424826009      -10.64487452979468
H            8.28444910965628        5.48907202293155       -9.54579536884872
H            8.11615969083577        5.78475412866597       -7.09794315502100
H            4.89732216640359        5.31795458456423       -5.43645295401494
H            6.41227469003401        6.12971983888549       -5.04483400773601
H            5.59274426155075        5.15847477988703       -3.82408354285960
H            8.46362255035310        2.94525069541630       -4.91247683840537
H            7.73244356338626        3.71658518408240       -3.50607845478814
H            8.56553301458740        4.69388137993239       -4.71384931408362
H            3.11624558486248       -0.93208308198665       -5.05152341913610
H            1.74123538114001       -1.35356110892359       -4.03726394036673
H            2.58221879979151       -2.60325337522683       -4.95053772466959
H            5.53677051801292       -1.65132210499890       -4.24834434950089
H            4.98266664674084       -3.32034755145518       -4.19096330552322
H            5.67885989335491       -2.57268171607216       -2.75573776116414
H            2.87174841048096       -4.73835149876770       -3.44936919037251
H            1.83656052340857       -6.05244441426053       -1.63104787104013
H            1.41068541846075       -5.02172485690241        0.55320085188915
H            2.01258571233015       -2.66733272991323        0.95840199172961
