82
 energy: -16.010502582182 gnorm: 0.000494028380 xtb: 6.5.0 (97a52f5)
C            5.15408617264374       -2.37696739751148       -4.78117278143641
C            5.42415055507266       -2.10578235377105       -3.31805666222179
N            5.96455503535680       -0.75622803399766       -3.09482752230871
C            5.22012390604518        0.35658989127599       -2.75934474675374
C            3.94765547639524        0.41859551801678       -2.19895197777852
C            3.32994463797821       -0.54949594248775       -1.40587294610440
C            1.98478384818902       -0.65180584091221       -0.87055272956389
O            0.95898400814380        0.01264337338647       -0.98096871680449
C            2.33890226220088       -1.86602061159234       -0.15484793201519
C            1.53028554232054       -2.67977146436933        0.63722866069743
C            1.84842078450034       -3.85489402370056        1.29890164148841
N            0.94066057064949       -4.60137142389529        2.01570644785656
C           -0.47351756082732       -4.25125315351154        2.21279258037761
C           -0.66242697914424       -3.31061311943090        3.38161675999288
C            1.52598199275474       -5.73039432757775        2.62783253194460
C            2.87091124261199       -5.76994850440472        2.30518861135182
C            3.69892422608736       -6.78516871674886        2.77655638575572
C            3.16919085215740       -7.76099150554754        3.57470559557954
C            1.79749972202177       -7.75546857433516        3.92781607644757
C            1.23893955942809       -8.74781467355951        4.74544346821319
C           -0.08375454485606       -8.67652109104845        5.04100394881393
C           -0.86292779232053       -7.63135096793915        4.53494902036295
C           -2.30878463540527       -7.59071229962969        4.88259260101944
N           -0.37895457614620       -6.67837323223939        3.76363244697422
C            0.93972016726627       -6.73083077456401        3.45761018151763
C            3.19628847490375       -4.57721874957670        1.41041967481910
C            3.66733329633640       -5.08029165905854        0.03956271328614
C            4.24212802024631       -3.68916869936986        2.09750405942872
C            3.70195826653665       -1.74801542138332       -0.66480948005710
O            4.75035628301694       -2.36904900080624       -0.52331082145411
C            6.03426645854567        1.58710739500230       -3.18112081315715
C            5.33450907594501        2.33777820546666       -4.32204286594914
C            6.28227316512397        2.50938966834607       -1.98000456429799
C            7.34161116420957        0.97477595231240       -3.67005725165907
C            8.49758619083351        1.58461564008147       -4.15023601176249
C            9.54554849740122        0.80395116516886       -4.55534646302905
C            9.47673871288652       -0.60969287750968       -4.49175264334283
C           10.54152238069959       -1.42671392730936       -4.89724194343985
C           10.40211630902029       -2.77325897574400       -4.79534728308635
C            9.21923594846435       -3.32333956989614       -4.29095603120998
C            9.10599588497100       -4.80387693961435       -4.19578471231453
N            8.19336196191978       -2.59329017376950       -3.90190541136512
C            8.31055668943603       -1.24754741295087       -4.00425676968091
C            7.23611204779666       -0.40345790892819       -3.59900139491004
H            4.74562925004116       -3.37597000640540       -4.94602742343078
H            6.06995802551497       -2.29191024006109       -5.36721364311596
H            4.44472658581476       -1.65398108931025       -5.18623266325531
H            6.13844639083821       -2.82359220551366       -2.90249033407620
H            4.50810971349391       -2.21896609006615       -2.73654839584511
H            3.40050940395144        1.33722776362022       -2.32714549207126
H            0.51453159330978       -2.34096573965735        0.72978316915713
H           -1.03305096696662       -5.17930487584515        2.36338059454907
H           -0.86520747609793       -3.82374406029867        1.28465545452895
H           -0.28900698501149       -3.76103560867875        4.30227070622763
H           -1.71168065129162       -3.05240360710101        3.53749783412820
H           -0.10875490768350       -2.38293517189423        3.23138966728312
H            4.74099043488842       -6.79126834847756        2.50911782254818
H            3.79657962238546       -8.55215270654780        3.94690309901588
H            1.85537822252593       -9.54414156808312        5.12515356477639
H           -0.54510651727160       -9.42145306549443        5.66639166568300
H           -2.44816783904538       -7.51601959678719        5.96120971700300
H           -2.81914778207626       -8.48807417529382        4.53226090679862
H           -2.78827715387355       -6.72826484126319        4.42017853837351
H            2.92413910013910       -5.74448634989798       -0.39954986662751
H            4.60324506887725       -5.62993339539129        0.12789807658277
H            3.82614884884558       -4.25410985601440       -0.64833554197468
H            3.89319936587428       -3.37996316924049        3.08189483684700
H            4.44024052636984       -2.79313911919736        1.51486476830150
H            5.18271076909622       -4.22309972615599        2.22372438198121
H            4.37870523953035        2.74519510886702       -3.99613679068510
H            5.14923972667031        1.66939723097713       -5.16191179240486
H            5.94964751691735        3.16335895245471       -4.67732532939213
H            5.34467839156740        2.90372726887047       -1.59073056820861
H            6.91370722046788        3.35138295556968       -2.26001999156642
H            6.77939392967905        1.96588812304737       -1.17760116544636
H            8.55257990044349        2.65780213219804       -4.20068136580018
H           10.44478570758339        1.26126397462662       -4.92978571095538
H           11.44581613016341       -0.98489487154392       -5.27837708501309
H           11.19969687692170       -3.42999343062215       -5.09780653721157
H            9.93251688724699       -5.22300884393501       -3.62151927818490
H            9.11072237603057       -5.25895167610143       -5.18640001317969
H            8.17639416439671       -5.08402752648572       -3.70070869428128
