78
 energy: -13.693769151701 gnorm: 0.000891865270 xtb: 6.5.0 (97a52f5)
C            3.93517314566613        1.49920811022051       -1.98215549228698
C            4.55987482360128        0.29691061353327       -1.30866809218422
N            5.05471858352184        0.62183317044758        0.04603991149865
C            4.33882087873455        0.47176646141010        1.20252517720653
C            3.29343599856781       -0.42652193865339        1.45090056301428
C            3.19718025285093       -1.71027688701587        0.92174472019578
C            4.22054247240116       -2.33800709085277        0.23448813630708
C            4.16339607903692       -3.64265451356226       -0.21780504456430
C            5.21836503325682       -4.25222941799480       -0.87475638762777
C            5.26356249730609       -5.56794900325526       -1.31300314031731
N            6.32225649752622       -6.12236921784347       -1.96506185757817
C            7.58023482403128       -5.43735556072485       -2.30444772442538
C            8.57184507306742       -5.48270977951535       -1.16303397625952
C            6.12984877679747       -7.50403876164734       -2.22673795562624
C            7.00479220606166       -8.41988352309294       -2.83889821817168
C            6.61743048422110       -9.71337260621733       -2.98544909432758
C            5.34789810070832      -10.15531571428492       -2.53335594995611
C            4.94355268021674      -11.50139245447168       -2.68791560238207
C            3.72508575022472      -11.91736635991700       -2.25026681199099
Br           3.22056200694481      -13.72248369483344       -2.47429364925790
C            2.84814567453187      -11.01918135670924       -1.63873059798233
C            3.20051024610128       -9.71205068327009       -1.47036634130765
C            4.45900913012350       -9.23820110181623       -1.91045924114094
C            4.88884690435573       -7.89427097513767       -1.76623146029658
C            4.20906385638732       -6.67199696779028       -1.13831135355623
C            3.94118560983198       -6.92583949940789        0.35446929042737
C            2.93021287096026       -6.31788100856504       -1.91358574160164
C            4.88327870612397        1.48212201465520        2.22364906998398
C            3.80673785972083        2.52402420542487        2.56018531172890
C            5.36452716341597        0.73457840539896        3.47694063573987
C            6.05206464617444        2.12202696572858        1.47589445881095
C            6.09746195506728        1.57511395883263        0.20928227428023
C            7.07406081883684        1.97162451579625       -0.72268894084851
C            7.98770244902199        2.91290385894477       -0.37070651456287
C            7.97329187490291        3.50318812748780        0.91894639121873
C            8.92296072404220        4.48390235399143        1.28716104453759
C            8.89912326172369        5.04525902705414        2.52554025766805
Br          10.18326318454035        6.35133198244516        2.98097396873742
C            7.93244549384822        4.66417623570946        3.45851111344982
C            6.99790252251670        3.72189222353430        3.14240883137568
C            6.99052127171775        3.11006257003106        1.86689589100592
H            3.09590730682577        1.87805131737671       -1.39779823773284
H            3.56658889599729        1.26476686720449       -2.98247667596174
H            4.65261392667691        2.31481639264409       -2.07507504349335
H            5.39587936506179       -0.09828047312455       -1.89323155402487
H            3.82697215582072       -0.50999701862974       -1.23596580027208
H            2.57247476068158       -0.14574271040538        2.20211200280934
H            2.31397810200941       -2.28853809158569        1.13571771928219
H            5.13167221692184       -1.79004764271350        0.07731518365367
H            3.26119682083900       -4.19508855794754       -0.03758310214332
H            6.09097561846540       -3.64942800973610       -1.04680578281917
H            7.34888600669099       -4.40708943757877       -2.59149811183940
H            7.99308832311285       -5.90128409888386       -3.20517753425796
H            8.16234019182801       -5.00796947735106       -0.27076250095867
H            9.50730074342451       -4.97777529224227       -1.41058684262764
H            8.80890589425320       -6.51300621181877       -0.89527307950599
H            7.97155097386926       -8.09375244445317       -3.17696230196874
H            7.27709416600623      -10.42515837629422       -3.45049272543858
H            5.60618605101293      -12.20787821219734       -3.15733965907442
H            1.88905517888941      -11.37794566386304       -1.30321127911852
H            2.51157305071915       -9.03575440875240       -1.00022096968580
H            4.87023825634532       -7.17284132301291        0.86624348020715
H            3.25087292764303       -7.75313849867387        0.50088907277994
H            3.51455962793869       -6.05294212980141        0.84229204086183
H            3.16136291957340       -6.15055569486174       -2.96460073189354
H            2.46344680562781       -5.41486158606712       -1.52760204597828
H            2.19543794423990       -7.11769269173293       -1.85787375097299
H            2.94537940719968        2.05699830023023        3.03485214894087
H            3.46398394463849        3.02148426249583        1.65405306666747
H            4.18737088866435        3.28606896942957        3.23674789762618
H            4.54043876077840        0.20481849450219        3.95220870137467
H            5.79120450164262        1.41462253783982        4.21030639283290
H            6.12707507780631        0.00265963944246        3.21427377628455
H            7.09231445338363        1.52078184111523       -1.69852036573339
H            8.74074141109680        3.22400293087782       -1.07361796883994
H            9.67528743805913        4.79125926507279        0.58135778353433
H            7.93839331020749        5.12866122940842        4.43080356508112
H            6.25860018728860        3.44423931996029        3.86993537342242
