50
 energy: -10.031257518527 gnorm: 0.000787637791 xtb: 6.5.0 (97a52f5)
C            0.66138652494435       -0.63343714638281        0.20138008161333
C            2.10932051570965       -0.19235255556423        0.22549378172523
N            2.98085999549094       -1.10439342173470       -0.55142251480075
C            3.41336299605563       -0.73317973162799       -1.82614096474628
C            3.46251926022257        0.61108076529239       -2.26963449947419
C            3.77423433954224        1.74018301938733       -1.49801465920760
C            4.36653719030134        2.04104277918224       -0.24581909958400
C            5.01581698045772        1.34019346822498        0.83721097763509
C            5.36162753674131        2.02738947923775        2.00609484823458
C            5.97414811154657        1.38468929206536        3.04889086597592
C            6.28269407792226        0.02009198313181        2.97567067337910
N            6.90166282684767       -0.64436522226272        4.04851079436692
C            7.13103857330000        0.01932004426818        5.33190087151927
C            7.34896372718298       -2.03270124688618        3.93415129448564
C            5.95583310436928       -0.66118184358427        1.79656457371768
C            5.34420812848658       -0.01714430501230        0.75524388716086
C            4.18580072786705        3.46226258108820       -0.45387631289994
O            4.41885623767496        4.47827498540576        0.17883451021580
C            3.59252229719692        3.16953013441499       -1.78247690721876
O            3.15391539305335        3.84049978414245       -2.69250522038632
C            3.78546562627595       -1.76192088786669       -2.73115824182937
C            3.87557721520295       -3.04893829593966       -2.33164723924057
C            3.59337353598362       -3.41505629626246       -0.98788346771258
C            3.74514060279589       -4.73613010121184       -0.53959179222540
C            3.46733645179827       -5.06864511556093        0.75869787320563
C            3.03007077101792       -4.09438518943544        1.64809821227764
C            2.86979645655804       -2.79892817644825        1.23316893480735
C            3.14110289553252       -2.42416320093806       -0.09108963672762
H            0.01636144655327        0.04161271370655        0.76729758664518
H            0.54374097369249       -1.63321338830475        0.62007798920031
H            0.28729373746101       -0.67314224412316       -0.82263161035519
H            2.49539558672680       -0.11974486061599        1.24666416538453
H            2.18904328553487        0.81606176214003       -0.18486412409161
H            3.31713697193917        0.78875384653268       -3.32308057943869
H            5.13791682503533        3.07836302232846        2.06672602932058
H            6.23374163536554        1.93727033383916        3.93384144085334
H            6.20942945642641        0.47784121732090        5.68450936392488
H            7.89412583884509        0.78718013710275        5.22218929569855
H            7.46148674051074       -0.69215938495464        6.08560630123125
H            7.96587023384746       -2.15439087132602        3.04602280519446
H            6.48905242011264       -2.69608128521798        3.86754438593157
H            7.94309313578221       -2.32419882635478        4.79763889837692
H            6.17410034791537       -1.71071226027214        1.71513176391171
H            5.10053548224920       -0.55652301391638       -0.14087515578007
H            4.03649942683596       -1.49285594915660       -3.74275077948357
H            4.18430463132321       -3.81310397650037       -3.02395576376843
H            4.08593243348664       -5.48740339175203       -1.23084351251290
H            3.58864968940916       -6.08558105586594        1.09373304816519
H            2.81794124812381       -4.36172755537280        2.67034977893280
H            2.54726636888038       -2.05649054569418        1.94004705583741
