71
 energy: -15.291231892987 gnorm: 0.000592368237 xtb: 6.5.0 (97a52f5)
C            3.02897012527170       -0.19468060850101       -1.11195797451044
C            4.05240222487501        0.50040384512330       -0.23869884597171
N            3.46373910947370        1.02024471836326        1.01397327912673
C            3.42328514000459        0.20414740928465        2.14973055680957
C            3.75836230552906       -1.19256434869918        2.07002873588682
C            3.67113026604479       -2.08916390929990        3.07870754747156
C            3.99943264988412       -3.47149547551590        2.94989353105903
C            4.50333097304812       -4.11123457012657        1.84365324286455
C            4.72679446770125       -5.49025039874965        2.03061850324609
C            4.39910948300130       -5.94947939875551        3.28103609954899
C            4.51599342183474       -7.31324350139366        3.76774198511452
C            5.09425595943530       -8.32680194529679        2.99661537369299
C            5.19695282781257       -9.60766377484744        3.47917855771224
C            4.72453431012463       -9.93651732239036        4.74926003068076
N            4.83664183868007      -11.27342726218876        5.24832634667440
C            5.97897581770465      -12.07340384207805        4.90596908215210
C            7.24858325318676      -11.50533839970795        4.83750469711241
C            8.34500567084345      -12.27255109354344        4.51553570714015
C            8.19452275741579      -13.62062634900342        4.25607389147118
C            6.94185713416430      -14.19880150594965        4.32002173732726
C            5.84362307465749      -13.43392413238446        4.64219776375382
C            3.81604909585010      -11.81677167241205        6.09908058469515
C            2.47397223520069      -11.51394447035566        5.88346028739281
C            1.49603667375851      -12.03697856623095        6.69886367141723
C            1.83901429052484      -12.87243527918416        7.74363913667140
C            3.16550978496478      -13.18368867215936        7.96951553307885
C            4.14541039782847      -12.66190527650884        7.15560881738156
C            4.14585536957393       -8.92974750062568        5.52081631222099
C            4.04711138802897       -7.64800545208631        5.04096487617527
S            3.79999530128780       -4.62339482822744        4.24485620796960
C            3.04793058378753        0.76659597761900        3.34655081692410
C            2.66123871576571        2.11321585783887        3.49136998221856
C            2.36056209797234        2.57043238467294        4.78308465500068
C            1.97204996838475        3.85153014024768        5.11659373528638
N            1.63981936688458        4.93491923841230        5.39597571557341
C            2.45384513399757        1.70264864245826        5.85446721221117
N            2.54195630218399        0.94961393479539        6.74158903477557
C            2.58695842186144        2.92171692085536        2.27882406959202
C            2.12618912606384        4.24283626258911        2.27081077272186
C            2.03359614218625        4.96917088204935        1.11257477802823
C            2.39775839058956        4.39510898406286       -0.09144627507744
C            2.85906497250727        3.10536711898113       -0.12164269944447
C            2.97619338692168        2.34309447854135        1.04844939931701
H            3.46948060861308       -0.58076713397361       -2.03333804548793
H            2.22192814299697        0.48477413442704       -1.38823989633090
H            2.56798293479905       -1.03263155523397       -0.58794290671832
H            4.53530036589071        1.32632321457005       -0.77001578475327
H            4.88331408498759       -0.16615002735994        0.01247994922577
H            4.07079965569102       -1.56879087182794        1.11592231967653
H            3.31916701461899       -1.77434591716026        4.04312353846916
H            4.71624141160917       -3.60735288342980        0.91434382191724
H            5.11661544452692       -6.12503861189497        1.25094044603816
H            5.46622765835327       -8.09735935701858        2.01422614315220
H            5.63584013716309      -10.38143357251641        2.87417847121200
H            7.36035794554530      -10.45686147665048        5.05129556046597
H            9.32238328027688      -11.82111440507387        4.46754685636335
H            9.05350955596871      -14.22061965284337        4.00427293850178
H            6.82403382913756      -15.25050045003687        4.11665504550643
H            4.86384058480856      -13.87631094187981        4.68483296127906
H            2.21188550178610      -10.87139402814714        5.06131336516687
H            0.46099782603688      -11.79557431274697        6.52054321266034
H            1.07290055627686      -13.28170500666738        8.38148446356776
H            3.43368417348780      -13.83576783262262        8.78448573729993
H            5.18108485190201      -12.89330997486676        7.33258152451486
H            3.78983503940242       -9.17110950187735        6.50684092067007
H            3.60265492475232       -6.87856003674922        5.64709250417660
H            3.06381964165851        0.16177973086036        4.23214545472113
H            1.83209008509034        4.71061795136618        3.18928068254483
H            1.67248717468095        5.98447505280876        1.13746641098620
H            2.31591180232268        4.96247455500855       -1.00418768436925
H            3.11068581073631        2.66889567191566       -1.07069448297964
