42
 energy: -8.772269870588 gnorm: 0.000639167338 xtb: 6.5.0 (97a52f5)
C            1.30106201465431       -0.52605723411066        0.23999983411856
C            2.73857574567114       -0.08713004271015        0.05330915693952
N            2.98173055294719        0.48022604203366       -1.28973957241774
C            3.44445352609857       -0.35431023175171       -2.30977565591055
C            3.53892696081562       -1.78128984134274       -2.11690094040812
C            4.22155659087182       -2.63498876826355       -2.90723225458273
C            4.28379087634886       -4.05084144196881       -2.70268373230609
C            3.69282072506261       -4.77814891358118       -1.70585890200965
C            3.95071471932144       -6.17069211162084       -1.78460973458958
C            4.73703067042966       -6.52986696803063       -2.83246810555248
C            5.16953117468046       -7.90134564812473       -3.16581677320180
S            5.17377228999611       -5.12250539499226       -3.75409144149458
C            3.80489537483825        0.21054755158236       -3.50803012102705
C            3.71325929577834        1.58976427754165       -3.78124322461248
C            4.14896522936225        2.03423540190536       -5.03737452402708
C            4.13939822274877        3.34076009932617       -5.47940695337413
N            4.12672802449043        4.44793534781032       -5.84796899134419
C            4.65023459418882        1.12498308286601       -5.94896891878623
N            5.06742323575753        0.33526375982046       -6.69962171803105
C            3.15694029877377        2.44347230929509       -2.73726466053581
C            2.95798210785318        3.81861625144335       -2.90303411769475
C            2.41291179360373        4.59422171876028       -1.91399772174019
C            2.04019517317430        4.01880823286184       -0.71334523027856
C            2.22271169995910        2.67599517134285       -0.51388212485031
C            2.78599958457258        1.85958539182180       -1.50372333009076
H            1.12538935277046       -0.94631527005602        1.23208780091474
H            1.02138347587636       -1.28143024528361       -0.49508650074742
H            0.61429088916521        0.31034964190252        0.10675775316249
H            3.43306971523860       -0.91736331150828        0.21483908617273
H            3.03300308022834        0.65151065527309        0.80519255657098
H            3.00524154236612       -2.20121712649722       -1.28632279780197
H            4.78042534683191       -2.25212171312344       -3.74075403602914
H            3.08771546481968       -4.33954746548772       -0.92840317800520
H            3.56072262240644       -6.88449465045442       -1.07502992380517
H            4.85363582872592       -8.61300307624712       -2.40197792430687
H            6.25590395132892       -7.95376422139046       -3.24640541897764
H            4.74473725570190       -8.21850715036354       -4.11892562217606
H            4.16219483397096       -0.42661353699683       -4.29391946677368
H            3.23298405055205        4.29080207331991       -3.82535702005410
H            2.27018800252319        5.65095393638981       -2.07137278448236
H            1.60426247558957        4.62701568477863        0.06240755088558
H            1.90675162990622        2.24602773382209        0.41865968326418
