50
 energy: -10.269041817427 gnorm: 0.000541890824 xtb: 6.5.0 (97a52f5)
C            1.77925842613960       -0.66438500710751       -0.09005827646600
C            3.01277293952576        0.15493179755706       -0.40827753367729
N            3.14204172208975        1.33890580954417        0.46793157620160
C            3.85376461641073        1.23472472191944        1.66796919790805
C            4.30677623344660       -0.04491245838788        2.15194264309946
C            5.01183447019963       -0.25960956668794        3.28305491063742
C            5.44590897508864       -1.55299997063725        3.75944321623574
C            5.28358082792673       -2.72881685925837        3.01540320511205
C            5.70926980130116       -3.93831353914498        3.50164668321046
C            6.31756449050459       -4.04176149117347        4.75816743170947
N            6.74709664896252       -5.28227724265925        5.25866082745539
C            6.75289544219613       -6.48733687464907        4.42939996504282
C            7.18455442719582       -5.44144854594767        6.64554887727276
C            6.48146000909608       -2.86659594976993        5.50071649507349
C            6.06045916027260       -1.65631735994385        5.01359345190350
C            4.10417858576339        2.38146738918489        2.38089408777877
C            3.65695437726554        3.66013177319730        1.99230762998853
C            4.02302929863290        4.74934066828223        2.79565917952678
C            3.68596147837391        6.06890707771154        2.57369586281308
N            3.39624927727842        7.18320299018095        2.38348604975833
C            4.79720205282354        4.53762831057479        3.92094242200708
N            5.45271809254719        4.32830844861098        4.86318208838341
C            2.83104156150857        3.74375656580264        0.79280568411370
C            2.26419491214381        4.94026248232327        0.34056610054575
C            1.46447627284480        4.98602352343048       -0.77118535093534
C            1.19616587208706        3.82690389870980       -1.47526218613717
C            1.73925191619065        2.63756100618881       -1.06523787862874
C            2.57154050911758        2.56258399013266        0.05958377027852
H            1.69041551463420       -1.54083293207448       -0.73501020459152
H            0.87209787763622       -0.07081340418839       -0.20855247553839
H            1.79325227128644       -1.01240527372992        0.94338659027703
H            3.01396635470223        0.48636050915722       -1.45121460402299
H            3.92442977244718       -0.44505865269533       -0.32674927780129
H            4.02242786557780       -0.90636494523279        1.58176210332781
H            5.27407018887858        0.57884828928524        3.90023149417843
H            4.82780552979820       -2.68608385552579        2.04284542600226
H            5.56232756308206       -4.82705170764052        2.91435066717800
H            7.19044622453865       -6.27083510197899        3.45697332744956
H            5.73625757894528       -6.85048517833470        4.29278470027347
H            7.34389062757527       -7.27418693822752        4.89332717419944
H            8.16092685208962       -4.98113712539976        6.78345001126097
H            7.25665284677746       -6.49385677708345        6.91197774046375
H            6.46914579540170       -4.97347356498993        7.31901666090068
H            6.95679324787457       -2.91477911006966        6.46407244888613
H            6.19717853796775       -0.76479260018615        5.60143822417564
H            4.67644705523251        2.31761700725645        3.28547803329402
H            2.45017654697148        5.85255838975363        0.87174126632477
H            1.03877451152216        5.92210808162410       -1.09422733439377
H            0.55784896463725        3.86014413875969       -2.34315922378340
H            1.49649587549409        1.74470516354423       -1.61146287827621
