85
 energy: -17.450698557886 gnorm: 0.000462975359 xtb: 6.5.0 (97a52f5)
C            3.86918276460384        0.49564760587554       -0.83947020625614
C            4.48226391522758       -0.74171476513849       -0.21796246980056
N            3.72317649894386       -1.21148361036979        0.96015965172517
C            2.66524029656595       -2.11387788888828        0.78648664647211
C            2.19390858188404       -2.44678177847674       -0.51970822640703
C            1.13170221777931       -3.24018185737294       -0.81484134524792
C            0.70808972289590       -3.50643247385223       -2.13180948919907
S           -0.69430469068390       -4.47451833421409       -2.52309876575232
C           -0.47560272092345       -4.27047673053552       -4.24782205538953
C           -1.35758838849239       -4.83602223958486       -5.23754759784480
C           -1.11311565696381       -4.69450541534918       -6.60728160933684
C           -1.96508720405954       -5.23065693869290       -7.53786293359386
C           -3.10775367586602       -5.92740933560315       -7.14299664196459
N           -4.00547790476119       -6.47150444633146       -8.11074871409672
C           -3.51407807349754       -6.94981809551421       -9.37386269139557
C           -2.32825075103334       -7.67335315382662       -9.44856258500627
C           -1.86930829831119       -8.14296365785238      -10.65405373717975
C           -2.57603795843327       -7.91281803169425      -11.83680846765519
O           -2.03742520982357       -8.43182688207427      -13.02415517723267
C           -2.80641730065559       -8.19143206803142      -14.17954004690132
C           -3.76638549362486       -7.18579471670858      -11.75520671104141
C           -4.22334744238637       -6.71608550410123      -10.54783566779864
C           -5.41380024487760       -6.54507376713355       -7.83175203061804
C           -6.06819310942251       -5.49523880063384       -7.19525371446660
C           -7.41466458758223       -5.56302344146220       -6.93727980252764
C           -8.16664143759608       -6.68086714073155       -7.30625158784585
O           -9.53722988561815       -6.66614166212539       -7.00532892126782
C          -10.24872268962119       -7.80788405567949       -7.42246727711552
C           -7.50418021432077       -7.73103602085192       -7.94704063041255
C           -6.15627189463575       -7.66149426789841       -8.20336961889643
C           -3.35720134179727       -6.07201162245703       -5.77779070081814
C           -2.50096149807333       -5.54196832714415       -4.84762507926723
C            0.64848026847128       -3.50469756696247       -4.49138005458612
C            1.30728677291144       -3.05071944269145       -3.29664026771134
O            2.43098725084475       -2.22668622333887       -3.32857230648025
C            2.65774368532095       -1.67250728421565       -4.61573099765073
C            2.47313058557015       -2.71612052219094       -5.71733770887558
O            1.13489263797618       -3.18343281956359       -5.76426811954577
C            2.08145369325005       -2.66492553048490        1.90453369955198
C            2.45978744871118       -2.34552942132517        3.22090203012564
C            1.81260094993497       -3.02218877023651        4.26640955164699
C            2.05145912270330       -2.84353953846263        5.61290518115059
N            2.25872434428046       -2.68725572343461        6.75067591623158
C            0.84660172013240       -3.96539876050902        3.97342231352305
N            0.03570724999489       -4.75690817657524        3.69515690083757
C            3.48387950780719       -1.31945407072244        3.39370565127388
C            3.88790968283140       -0.85235010675169        4.64848052514283
C            4.82874785234274        0.13549233077582        4.78368701398327
C            5.39931954563189        0.70116347899702        3.65963948387535
C            5.03098085000860        0.26534504260697        2.41308588329600
C            4.08458379580482       -0.75308567221402        2.24494165747357
H            4.43610908370791        0.84501609267392       -1.70450064636520
H            3.82214319841097        1.31345852023376       -0.11954260010252
H            2.84652852170577        0.30608398167298       -1.16749586100225
H            5.52122010500003       -0.56718880845770        0.07788198309983
H            4.55375460782655       -1.55995571750633       -0.94140816991528
H            2.69988999834924       -2.00526664317236       -1.35595242293608
H            0.55634657348186       -3.68436682772181       -0.02396983796205
H           -0.24164809047608       -4.15009988379639       -6.92291531873621
H           -1.77230619009710       -5.10327243415255       -8.58851024202098
H           -1.78116879022044       -7.86923900993406       -8.54310848600749
H           -0.95299771299146       -8.70338197008355      -10.71017079157775
H           -2.30184742141302       -8.64914688867870      -15.03158788331634
H           -2.89072800829005       -7.11763519018023      -14.35264807400382
H           -3.79361414968681       -8.64243433823344      -14.06893333756494
H           -4.33408726420211       -6.98935330974861      -12.64617059074176
H           -5.13911823875770       -6.15379848669212      -10.49489452607017
H           -5.50277107554238       -4.62343773537721       -6.91636256013678
H           -7.91917246350360       -4.75082031453872       -6.44464255536826
H          -11.29668343914897       -7.68095070946258       -7.14730774046815
H           -9.85596170397872       -8.69376018305699       -6.92140053416799
H          -10.17726653277923       -7.91471166541700       -8.50581843581656
H           -8.05255865252122       -8.60627160285942       -8.24353737712581
H           -5.65321894567167       -8.47683047345815       -8.69310132094241
H           -4.22893147810681       -6.61887711821193       -5.46426317199270
H           -2.70272308754810       -5.66113963710189       -3.79776740680191
H            3.66331358353446       -1.23245616824198       -4.62611024187646
H            1.93633384918796       -0.85686198494943       -4.74271492040555
H            3.10995041650452       -3.58771069221439       -5.52531195422206
H            2.73362248610937       -2.32445557223889       -6.70933896091013
H            1.30187516226620       -3.39072929103013        1.77787294082182
H            3.45561561961393       -1.26765605886506        5.53717815090513
H            5.11970668272879        0.47518489017001        5.76438771905110
H            6.12976053804065        1.48675638023886        3.76458466661052
H            5.46534952911168        0.73906705209398        1.55206235901610
