66
 energy: -12.590837594826 gnorm: 0.000851216103 xtb: 6.5.0 (97a52f5)
C            3.69348586526223       -0.23116698078747       -2.15487393553687
C            3.19190238494620       -0.12719909578501       -0.73182404024718
N            3.35674837494377        1.22948301430508       -0.18679502392490
C            2.42964935434181        2.24909824354205       -0.28888920609574
C            1.06394902353054        2.17172316994164       -0.53401138784625
C            0.20550076808253        1.09890023805301       -0.27971166973364
C            0.19023026991640       -0.14865949838225        0.47650236289477
O            1.00924339101554       -0.76102119108024        1.15610682448612
C           -1.21844855727183       -0.33713676022230        0.14738718813617
C           -2.27612514369017       -1.19721470516870        0.45523334230941
C           -2.21521850950606       -2.44363042340858        1.06663998603065
N           -1.16805673071366       -3.34409215828412        1.11109844108174
C           -0.02619608870441       -3.36839340425166        0.18386632418404
C           -0.31607364257580       -4.19143566295766       -1.05157820685200
C           -1.51521644485842       -4.51284000074965        1.84121635515409
C           -0.76234868216285       -5.64183673123015        2.13941331554896
C           -1.34559394077908       -6.65788622352035        2.86661580614367
C           -2.66132326044647       -6.55913670733295        3.29346145899047
C           -3.41686759835890       -5.43817973957486        2.99659953712090
C           -2.83911354722250       -4.41797386998970        2.27075465724685
C           -3.41470518880656       -3.09974626069301        1.76810423749448
C           -4.55221997678224       -3.36122389017990        0.77135137979316
C           -3.89430738805131       -2.23453083977477        2.94129714891666
C           -1.20879248692909        0.93102093582265       -0.55894086167612
O           -2.05617318076776        1.59486058853144       -1.14975386346292
C            3.18983306952216        3.57741793915114       -0.15244657088835
C            3.12637554312526        4.37888413779929       -1.45994729908205
C            2.64104796555090        4.39374657058424        1.02543158101256
C            4.61910020800859        3.12711066097838        0.12409573119538
C            5.76658248844305        3.85487996032407        0.35876280163480
C            6.95840875775895        3.17980346844746        0.55725204351145
C            7.00047663642119        1.79418276874183        0.51852989042008
C            5.85707801358274        1.06056287416878        0.28228327824815
C            4.65756366723957        1.73311905058860        0.08427689319457
H            3.56884275090404       -1.23584205256704       -2.56420795831274
H            4.75226571656991        0.02386544265774       -2.21663296723716
H            3.15882782527737        0.46245724801585       -2.80562833604430
H            3.71285999482605       -0.82692925934112       -0.07053359956256
H            2.13673875688492       -0.39824279040859       -0.67980185763320
H            0.58535333220632        3.06827372274816       -0.89030991418654
H           -3.25911643312472       -0.80574383493931        0.25415302705432
H            0.84634898920090       -3.74943176690792        0.72405188828469
H            0.22077779985230       -2.34249191558679       -0.09118330243900
H           -0.54987202696651       -5.22404019206805       -0.78886956263260
H            0.52829612803401       -4.20650673759108       -1.74374840733497
H           -1.17965302816418       -3.79511429270895       -1.58777270596530
H            0.25796808216939       -5.71254649690561        1.80768956772409
H           -0.77261744523396       -7.53887360582237        3.10530664794646
H           -3.10132636681071       -7.36344363181335        3.85973541424957
H           -4.44020923269577       -5.35641001283789        3.31853263634070
H           -4.19693772133820       -3.96304088889444       -0.06411183272062
H           -4.94880776493691       -2.42878693700732        0.37259382511862
H           -5.37037445448258       -3.89795282127653        1.24957948261612
H           -3.07866087644074       -2.05200851110334        3.63969957852244
H           -4.70033429771620       -2.72704114658307        3.48347642061493
H           -4.26107219590108       -1.27058612994763        2.59131223637306
H            2.10447095880564        4.67625800582452       -1.69021017557587
H            3.50134506481803        3.78326113274356       -2.29128406404182
H            3.73211354002985        5.28144794003231       -1.39120473232334
H            1.60222983462536        4.67362602595693        0.85577382404080
H            3.21853583394313        5.30579680364531        1.16972165995257
H            2.68849102447551        3.81358442284571        1.94614016581926
H            5.72620158188215        4.92975661639313        0.38202963876782
H            7.86203744778198        3.73692994005805        0.74232811733695
H            7.93732432442213        1.28512273881864        0.67553410003114
H            5.88313746312730       -0.01402650645805        0.25445267707719
