50
 energy: -9.942630075021 gnorm: 0.000815043187 xtb: 6.5.0 (97a52f5)
C            0.64398783293317       -0.44144191449933        1.34508986859080
C            1.72064874423714       -0.84533461102170        0.36111777900757
N            2.88564235810332       -1.42626369688695        1.03783911757895
C            3.98291967074696       -0.68878437156831        1.41349989089471
C            4.33989689748652        0.64149249731052        1.30088186467712
C            3.70791555736961        1.78167311385510        0.78517281692494
C            2.50060808104849        2.33548358080367        0.17025716990537
O            1.41593898457788        1.87703982440398       -0.16771905941265
C            3.11483425639055        3.66137818582461        0.12090424308120
C            2.97229800730921        4.99573562143576       -0.28474794636051
C            1.93881370817531        5.72589094640308       -0.84095000883271
Se           2.30972183902448        7.54174068665913       -1.30579333933000
C            0.52527724846916        7.69664562342201       -1.91953797895362
C           -0.08109844211251        8.78763208254341       -2.49407328445666
C           -1.40630093565661        8.70037109995282       -2.88123948950620
C           -2.11163723025790        7.52482046402872       -2.68961842715488
C           -1.50645426007793        6.42831487728077       -2.11456091496965
C           -0.16963353350878        6.50389906132421       -1.72185310457883
N            0.61944906990592        5.46584718251983       -1.12709583574542
C           -0.02583931620523        4.17302060493274       -0.86734518219612
C           -0.07325470177458        3.30833402099624       -2.10919496643253
C            4.30262014204299        3.10174166495749        0.73321404141204
O            5.38747750678656        3.56364702109194        1.07342528150180
Se           5.23923119962543       -1.86088251803725        2.24892645645193
C            4.00629929590287       -3.27694790273634        2.00174359989369
C            4.13902287503911       -4.59119306559767        2.38008037884958
C            3.11346467760919       -5.48012879281572        2.11236001214116
C            1.96523039793855       -5.04630741319343        1.47254081298225
C            1.82789086366880       -3.72862546020556        1.09290699487192
C            2.85756352016219       -2.82380700377078        1.35384453942588
H           -0.21540926824745        0.00930338183366        0.84547016900020
H            1.03064204918899        0.28903251411663        2.05668187312344
H            0.29142352794096       -1.29825835170471        1.92034312173305
H            2.06851842490346        0.00384213263167       -0.23068633703192
H            1.34281807314201       -1.56502373909514       -0.37152518868705
H            5.32219619810121        0.85403975307963        1.69527883153985
H            3.87281495888449        5.57324398909557       -0.13874986497465
H            0.48193203678432        9.69401746475674       -2.63634422881978
H           -1.88994368418984        9.55043965054982       -3.33316255273002
H           -3.14377064393923        7.46650348408627       -2.99386945435277
H           -2.06015846271215        5.51808680390827       -1.97228763022790
H           -1.02922277420155        4.35758368179434       -0.47061464492506
H            0.51581184423659        3.68284062816425       -0.05546304517562
H           -0.61977591523729        3.79820821133333       -2.91556177317326
H           -0.54673422456373        2.34413595268935       -1.91513826386395
H            0.93499816492320        3.11048459418973       -2.47507989989060
H            5.03677998475689       -4.91140434553426        2.88031748805050
H            3.20891979888954       -6.51266186210059        2.40468143050429
H            1.17056387746246       -5.74557092146674        1.27049936898656
H            0.92917210902313       -3.39833420912679        0.60471566305415
