60
 energy: -9.779750948512 gnorm: 0.000523214324 xtb: 6.5.0 (97a52f5)
C            4.53628091951639        0.62388720500245       -2.71683766066328
C            5.80051880840552        0.07046456333585       -2.09454937111931
N            5.56637818975089       -1.21572486592617       -1.41764657628798
C            5.46478394415325       -1.48781268992706       -0.05576054754354
C            5.35876354352305       -0.59278194391771        1.02178611871778
C            5.05615482699407        0.75066338390254        0.93906201560630
C            5.03315695867938        1.58778375196415        2.03690445772632
C            4.70031031174230        2.95490296097353        1.99146767875632
N            5.13640484770132        3.90215408191088        2.90791849322410
C            6.06126563447351        3.67589450761710        4.02847197565392
C            7.50317902850362        3.66099690099930        3.57192995238503
C            4.70104910120877        5.17087583585376        2.49657797506895
C            4.88831801549906        6.44823009717498        3.03091404831046
C            4.30395275148855        7.51915318700021        2.39784988370371
Cl           4.51929258184692        9.11120554745393        3.04181351093964
C            3.53226250840206        7.33716499440278        1.23506832570614
Cl           2.80615487817958        8.70700526022183        0.46592409044987
C            3.34599249446390        6.08443141959627        0.70153702873824
C            3.93898219191181        4.98954190275607        1.33629187137985
N            3.92311504661958        3.61260481113381        1.03771441015992
C            2.82902777730407        3.02121374752364        0.24365250672012
C            1.49632109077120        3.14400286028254        0.95032649831645
N            5.48161644598915       -2.86895861981883        0.08857843392009
C            5.31524337760461       -3.62698246218414        1.33852734081509
C            3.85833195239676       -3.76673904156606        1.72050763530847
C            5.53827266116720       -3.46717594698366       -1.17971887265820
C            5.53954882855754       -4.80282767957917       -1.59017098285281
C            5.60998013303027       -5.07853398746060       -2.93476370636691
Cl           5.60911546387421       -6.72514939246682       -3.46822099365603
C            5.68181747830685       -4.03977254734819       -3.88144936453618
Cl           5.77469683449681       -4.42218431401062       -5.56704054849110
C            5.67794591776186       -2.72360962336495       -3.48563981941499
C            5.60018943879267       -2.43350116279072       -2.12065653946949
H            4.70197925470222        1.59292636484305       -3.19117586659212
H            3.75039277052072        0.74378642028858       -1.97156863632020
H            4.14552913589183       -0.05546260494468       -3.47527655751544
H            6.25168576657806        0.76870072807128       -1.38438854534662
H            6.56846976721040       -0.09232148372099       -2.85796702804822
H            5.48774895237485       -1.00027982010673        2.00776648550586
H            4.85209890602294        1.17587581308517       -0.02244283792264
H            5.37002848067900        1.18620770183568        2.97549985776356
H            5.78781733239209        2.73621455450693        4.51781077715329
H            5.89154922711864        4.45878223033479        4.77402686352151
H            7.67082091410616        2.87217465377358        2.83773291067826
H            8.19492120413142        3.49957666859303        4.40075628272224
H            7.76773653402608        4.60461724464186        3.09329299103861
H            5.47288127113072        6.59751975166501        3.91951987729252
H            2.76562343335147        5.95651230480400       -0.19326297679388
H            3.05198305277534        1.97142968727148        0.04755914213342
H            2.81042525990323        3.51947011784094       -0.73052413612091
H            1.52923764969590        2.65226935342602        1.92329279582732
H            0.68360027429936        2.69593363730277        0.37580811582411
H            1.24098290591460        4.18894731520538        1.12891245894867
H            5.88962832919807       -3.13016820775798        2.12606828359117
H            5.78310278778840       -4.60748707818529        1.20690492885170
H            3.39617019733087       -2.78865262972432        1.85864001246482
H            3.72834511695959       -4.33187590412178        2.64534231070063
H            3.29920434350162       -4.27641281221251        0.93490117706402
H            5.48407867778004       -5.60296358366103       -0.87587875479411
H            5.72953447156536       -1.93877316481630       -4.21707920017832
