56
 energy: -11.433693460370 gnorm: 0.000803134524 xtb: 6.5.0 (97a52f5)
C            3.05758639086305       -0.88275100559072       -0.10953867598067
C            3.72144627765031       -0.12168272859152       -1.23419851969833
N            2.83093529073868        0.89487341431098       -1.80121659595300
C            1.96985441971811        0.45239499490263       -2.81931648233555
O            1.91609007015104       -0.70861941847570       -3.16136932504238
C            1.09097344610267        1.45946740740990       -3.52058335028449
C            1.59938399675155        1.70435313773295       -4.97591304758815
C            2.23670306555619        3.08052493808576       -5.19127529264387
O            3.23046947137300        3.51049758120562       -4.65478750043531
C            1.41612851185643        3.76632929708975       -6.19049993863095
C            1.48783873694020        5.04792782816013       -6.74665905869107
C            2.46966568100885        5.98613216808369       -6.35672886240634
C            2.50440871865158        7.22264223506105       -6.91561962557879
C            1.56209914671130        7.59033847200074       -7.89437506432066
C            0.60304200278659        6.71864355947198       -8.30052041186753
C            0.52145211817129        5.41121702955641       -7.74884192169937
C           -0.45911437948622        4.50274768302197       -8.16446639293433
C           -0.53815583702402        3.21250809223368       -7.61683654978611
C           -1.45730924754095        2.20884887802551       -7.95502501111419
C           -1.41941501647612        0.95354424528249       -7.33939784963523
C           -2.34224830250124       -0.07137982183478       -7.68672312987447
C           -2.29180195166962       -1.28863332716698       -7.08922000480424
C           -1.32338333323786       -1.57171455889820       -6.10585581116205
C           -0.42063179889757       -0.63148400729896       -5.73413082119711
C           -0.43600209859133        0.65572855975108       -6.33136903513243
C            0.47474803481388        1.65371711468873       -5.98410066756837
C            0.41568010075127        2.88621570855134       -6.62322987188440
C            0.89822605015969        2.73999400647690       -2.74247989293958
O           -0.04780312116906        3.45440571694280       -2.98735763888345
N            1.83611127618647        3.06552365438005       -1.74577186551277
C            1.69421140714479        4.39678082720128       -1.15113865369243
C            0.74997917333071        4.38815294790975        0.02879994670746
C            2.79382653171781        2.17881094096837       -1.29004742584858
S            3.85704564301648        2.63704779386296       -0.11326944491728
H            3.71032688838856       -1.65000348944177        0.31095896521767
H            2.14864057305015       -1.37226856619272       -0.46178867151523
H            2.76801317100321       -0.20904716242875        0.69777930423966
H            4.00854394255224       -0.79912707251627       -2.04647978797644
H            4.64447534641037        0.36433048137577       -0.90064213215428
H            0.09558093628888        1.00013270665238       -3.59849301540133
H            2.33838426701772        0.93127025942576       -5.23199697773354
H            3.18608656147270        5.69479182991690       -5.60849720942746
H            3.25781660311990        7.93049142505660       -6.61153861301852
H            1.60678663540939        8.57730527684330       -8.32430688644891
H           -0.11160396811020        7.00943148857907       -9.05081902195265
H           -1.16517386801441        4.79497295152465       -8.91947369179367
H           -2.19877271530287        2.40825415301734       -8.70635340274650
H           -3.08603092847264        0.13341493499146       -8.43709878980928
H           -2.99901620311273       -2.05236209754544       -7.36808338815333
H           -1.30411887718893       -2.54634221091863       -5.64653337927355
H            0.31739414465112       -0.84700625349955       -4.97941080830015
H            1.33216808411967        5.07067322057251       -1.93614866268727
H            2.68721256487378        4.76311212806761       -0.86935975724146
H           -0.23755678331614        4.03667293369872       -0.27324121248667
H            0.63298166075742        5.37993951837545        0.46951234498291
H            1.10700148892092        3.71403017995783        0.80846858696841
