47
 energy: -9.761129955012 gnorm: 0.000463652639 xtb: 6.5.0 (97a52f5)
C            1.40783289631427        0.90938143851106        1.70754752739704
C            1.79680531228791        1.87425971346885        0.61147100004027
N            2.94791095355845        2.69813707498103        0.99719602364820
C            4.25456402626753        2.17944083539257        0.81102463417024
O            4.48782570507515        1.18533635081360        0.16499990599746
C            5.24162252050553        3.04123948799069        1.56195670767054
C            6.69237200268376        3.08931045277513        1.02773867055148
C            7.41236014745076        1.74014847649899        1.17588095755196
O            7.29000727990170        0.74497776523430        0.50034085552488
C            8.35146692936789        1.88891468341460        2.28719511108829
C            9.17987271460925        0.97063021963424        2.94261228795593
C            9.18261343940776       -0.40652951902335        2.62522442441415
C            9.99276638292261       -1.26821771930153        3.29163548542304
C           10.84647602838946       -0.80316125524505        4.30937796696498
C           10.88124852148747        0.51311299724640        4.64215045662970
C           10.05529552986828        1.45772745755018        3.97422872485664
C           10.09469703027844        2.81895530813967        4.29454631911891
C            9.28314191835543        3.74935326857689        3.62625357431981
C            9.25938774019849        5.13357939650691        3.83341042407845
C            8.43332151822930        5.96131467662143        3.06953789577928
C            8.43236752215666        7.37011575970042        3.26506331547677
C            7.66022995902752        8.18055039968622        2.50008205526118
C            6.84502560178123        7.64528538281147        1.48539119468551
C            6.80389267987759        6.30823831156827        1.26500325656969
C            7.56957272046950        5.41533315869303        2.05387830338256
C            7.54799576832859        4.02874670969105        1.86971159563209
C            8.40872925176357        3.24336242591170        2.63375422530011
S            4.43084334428948        4.64674632500002        1.67593348363103
C            2.83277902875714        3.95788415526955        1.52089536463622
S            1.44159182141981        4.72619891512963        1.89880666807516
H            0.55333401523445        0.29045892932596        1.42761616094488
H            1.14852097206313        1.44500456583045        2.62163930912121
H            2.23859582970344        0.24467602183548        1.94823763321625
H            0.96632852277025        2.53938520810672        0.35188698294096
H            2.06504048239151        1.33964265735436       -0.30648680989675
H            5.28980942318435        2.66326707868796        2.58952879553707
H            6.69207925476678        3.40069599291522       -0.02399842898492
H            8.53007977970399       -0.75170181533074        1.84242563868615
H            9.98579114038839       -2.31639114673328        3.04190751263754
H           11.48023643934272       -1.50381284828920        4.82750515620438
H           11.53985343679508        0.85931569939979        5.41965301740006
H           10.76583909373757        3.16355128859809        5.05923008780359
H            9.90174395632542        5.56476621205491        4.57886410998681
H            9.06241449571828        7.78708531424526        4.03156102832158
H            7.67398255943534        9.24600810393928        2.66084609236315
H            6.25112395297125        8.30855276802285        0.87821253670271
H            6.19578035039728        5.90969331676885        0.47195276119091
