56
 energy: -10.290472128093 gnorm: 0.000646957290 xtb: 6.5.0 (97a52f5)
C            1.82850275690160       -0.64237981270920       -0.42070922024882
C            3.12085543441477       -0.03929536350257        0.08211971549194
N            2.93425312260919        1.16309615948540        0.96742861591990
C            2.51247537061288        2.45244386399088        0.36976700463180
C            1.01549525526553        2.69904923747502        0.52466160496795
N            0.60918354117719        2.52837917567694        1.93412490339563
C            0.23703784667044        3.61628517255994        2.75520690522107
C           -0.47558081007298        4.70058901887522        2.22817820710861
C           -0.84784608193229        5.75472785517613        3.02176777289204
C           -0.52033489491668        5.77604741861344        4.37608573163555
N           -0.90732431691725        6.83350533759998        5.17668549615713
N           -0.59519407923990        6.87826181114406        6.37442750378558
C           -1.01900178906943        7.92855015461220        7.16899643370812
C           -0.59840853619907        8.04334744033764        8.48830601735046
C           -1.03332981657660        9.08790385008385        9.28420308078969
C           -0.57398577669739        9.19380549655144       10.69195513022665
O            0.17823084469791        8.35375718554316       11.14819014419922
O           -1.04779343637116       10.26734287940580       11.39741096648731
C           -0.54494621826440       10.25310929416643       12.69892365616889
C           -1.90074593721418       10.02912145927145        8.75344358130839
C           -2.33077612965762        9.93273678156105        7.44067429564704
C           -3.26266568341585       10.93293486074209        6.86586992234027
O           -3.65606216627998       11.86355088562641        7.54251473950702
O           -3.62132336813342       10.71728115549539        5.56173382660459
C           -4.49732537169924       11.71335519408467        5.12874705233550
C           -1.88531489336236        8.88410771861029        6.65887035446697
C            0.19251345458249        4.70464025944401        4.90640355951184
C            0.56192991179132        3.64627144277174        4.11694117406475
C            0.95977435606987        1.20303013498520        2.47346966138020
C            2.45788397702690        0.95900748560728        2.35584955888713
H            2.00674501307046       -1.50129268776239       -1.07081896372281
H            1.25003319537013        0.08374194523503       -0.99183790166840
H            1.20379651341487       -0.98405362348211        0.40440959923888
H            3.75724154330867        0.26578778207951       -0.75461851615942
H            3.70204724468860       -0.77722446333296        0.64409523483424
H            2.81166785487690        2.46476833316442       -0.68343632937179
H            3.07915025838158        3.24734086561610        0.86402448999930
H            0.43497430970618        2.00383720700021       -0.08720708044025
H            0.75388601264675        3.70505067770662        0.18542980848931
H           -0.76925770381312        4.68345468375593        1.19419710651128
H           -1.40571017311181        6.57898644453484        2.61292629699653
H            0.07256379855127        7.31206179446144        8.89954174179917
H           -0.92073720708342       11.12536758644364       13.23798933912899
H            0.54636857752897       10.28267220133686       12.66354238800835
H           -0.87070577451586        9.33938837578826       13.20092529436836
H           -2.24461365567331       10.84327711233754        9.36674202406157
H           -4.77058800005932       11.52256829787912        4.08868136272011
H           -4.00560315258438       12.68537643402842        5.20971741375662
H           -5.39261642555056       11.70242008903339        5.75443959524219
H           -2.21957870366792        8.80583112793866        5.64058520623892
H            0.44782993526833        4.72638777006027        5.95096904304096
H            1.13787953738412        2.84410766311402        4.54121010357852
H            0.40125072855167        0.45373451277018        1.90621992630889
H            0.60857537825965        1.11659821357324        3.50596533928266
H            2.72682081283927       -0.05216902775686        2.67872719600517
H            3.00741351642349        1.65068713119776        3.00118288581559
