50
 energy: -9.002686676794 gnorm: 0.000814600617 xtb: 6.5.0 (97a52f5)
C            1.57869131191418       -0.63522566564532       -0.10295527906169
C            2.95388995226155       -0.22183338860943        0.37456460227932
N            3.07302640195504        1.24405167811315        0.69932797016743
C            3.10235193252917        2.22922868694188       -0.40820643436255
C            1.75764521676471        2.92495953472921       -0.59453301340968
N            1.27166681727499        3.46367477340401        0.69256934463316
C            1.16875566053335        4.84944636607740        0.95035850866761
C            0.79939663493920        5.74004972195455       -0.06498763017975
C            0.69609717387518        7.08524924890024        0.17803724008884
C            0.95843612956301        7.60062599225969        1.44561238308064
N            0.84250690392962        8.95354866846260        1.68937641232394
N            1.08462875067449        9.42021546468947        2.80883888121158
C            0.93785634482374       10.77261603366330        3.04115127220075
C            1.22404820083993       11.31858337356426        4.28709809836141
C            1.06795920921647       12.66678598514226        4.51461662555107
C            1.39780344740305       13.25571525339831        5.87739656650285
F            1.56756237025641       12.25266052094472        6.75605217875021
F            2.52766388876131       13.97445143351572        5.76871108783758
F            0.38136381445915       14.04555234552376        6.26166309677274
C            0.62383577129251       13.48802451490126        3.49743723136754
C            0.33601619700524       12.96091932823003        2.25490756222271
C           -0.15818689769856       13.85781089708086        1.13240123688990
F           -1.32563311447463       14.40744206486895        1.50441641820004
F            0.75699033528615       14.81590215266375        0.91323807876061
F           -0.32521539107526       13.10883998869122        0.02875622620679
C            0.49379389641744       11.61393989094355        2.03074642596537
C            1.32939665957425        6.72266675366976        2.45979690179697
C            1.43076466106765        5.37628459323776        2.22077012504797
C            1.17297572696793        2.44020873693466        1.74846820602794
C            2.52433566347025        1.77548244810078        1.96852433665986
H            1.53249742423004       -1.70202178319514       -0.33163738847051
H            1.29588397484418       -0.09554986508718       -1.00695431570765
H            0.82065276140102       -0.43025470856878        0.65317750185941
H            3.71358101587900       -0.45363338579240       -0.37896583436939
H            3.24069272829721       -0.78231585926744        1.27010730163267
H            3.41833304942479        1.71858130402310       -1.32393295416149
H            3.87969163668154        2.96354934031197       -0.17523815403349
H            1.00427561245659        2.23479225704346       -0.98385694513803
H            1.84510849138669        3.73775199536960       -1.32103736505318
H            0.55248987607141        5.35651285167417       -1.03884005527973
H            0.40325215929272        7.76428359047977       -0.60420894563460
H            1.56453155821536       10.68299300904643        5.08449977777759
H            0.49899295929127       14.54257118426771        3.67602230804373
H            0.26846789385795       11.21061328536568        1.05938665280094
H            1.53862770772677        7.12472839356507        3.43577800141405
H            1.74901260336833        4.72055904437279        3.01097216219470
H            0.42916984217708        1.70491689953059        1.42944904095840
H            0.77811626309997        2.88709171401340        2.66573788431496
H            2.46079105850989        0.96129621567061        2.69809108376896
H            3.24510771398200        2.49822712082392        2.36275558252311
