50
 energy: -9.228952048066 gnorm: 0.000607494454 xtb: 6.5.0 (97a52f5)
C            1.04222279558527        0.08143895885564       -0.97871519167449
C            2.26959398400590        0.12224406546203       -0.09269032992914
N            3.37805782400785       -0.76057691472108       -0.57573864135778
C            4.66168865957566       -0.54653828929040        0.13973329040191
C            4.67959049690545       -1.23218837225360        1.50342463213998
N            4.33152069264424       -2.66194526674039        1.37029714676124
C            5.22423044508270       -3.70660467853894        1.69344983679572
C            6.17779119156636       -3.55129305892594        2.70814012741143
C            7.03014277945621       -4.57253113506093        3.04085715554253
C            6.97127016093813       -5.79548795339328        2.37387035907586
N            7.81413553838196       -6.83230201693652        2.72644061798867
N            7.77556695747495       -7.92205674794369        2.13278541246504
C            8.59787103116675       -8.96862330773150        2.50871824592410
C            8.57107506663533      -10.17716690735059        1.81514831732816
C            9.38232381499378      -11.21796696952695        2.19698244836956
C           10.24178446266977      -11.08489466310265        3.27974043477492
C           11.11408069061469      -12.21218547301103        3.69123855126658
O           11.07172522216139      -13.26889808756659        3.08685141932377
O           11.93684494476292      -11.97502404875345        4.76321267340617
C           12.69399382656360      -13.11035252045776        5.05810656544308
C           10.27046326312347       -9.88131754938153        3.97207280868965
C            9.46116547821579       -8.83831043982238        3.59268113251715
C            6.03378128454750       -5.95455446211323        1.35671025311039
C            5.17893204812885       -4.93574786222791        1.02284595297044
C            3.05527906368119       -2.87633338517782        0.66405628682371
C            3.09652059266139       -2.20946315780470       -0.70300545773007
H            0.29372974510543        0.81563095675711       -0.67378615033456
H            0.56277723828216       -0.89758221141190       -0.95443907392540
H            1.30649959234635        0.28821652099324       -2.01650708881217
H            2.02088188083744       -0.15777154187661        0.93501488334452
H            2.66233330763126        1.14302224339881       -0.04229376528171
H            4.84341694059538        0.52986046611026        0.22928251694118
H            5.46509874595408       -0.94157380131227       -0.48981408528252
H            3.96437536276688       -0.76472433276507        2.18598780252455
H            5.66435702956883       -1.13367496437598        1.96824725592428
H            6.21205647939962       -2.63069919839294        3.26228235310907
H            7.75121829104402       -4.44959687163208        3.82980095877858
H            7.90416081676039      -10.27990309862381        0.97719221898908
H            9.36312457129074      -12.15248875572353        1.66317179565904
H           13.35235786905468      -12.89586251679430        5.90251164711114
H           13.29183210578058      -13.38342048913703        4.18593574510278
H           12.02535312595220      -13.93482218344324        5.31459941262154
H           10.93661968313638       -9.78112741547766        4.81155618330723
H            9.47913026847327       -7.90611576325775        4.12846009386881
H            5.99523787862145       -6.89539875259657        0.83740951538720
H            4.48658010351702       -5.07068076897629        0.21178125877906
H            2.25774591372941       -2.44335541821892        1.27481127295242
H            2.83115270299254       -3.94453301416898        0.59558528986406
H            2.16541233965633       -2.35675083994022       -1.25866707652855
H            3.89080569193600       -2.65192800561778       -1.31208701193622
