63
 energy: -13.361063598846 gnorm: 0.000764382630 xtb: 6.5.0 (97a52f5)
C            1.11347929391286        0.50650376273016       -0.07202721410399
C            2.55412453324165        0.07457265898400        0.10632812709707
N            3.48928766383632        1.21790263381846        0.07296353962849
C            4.32696167693516        1.47420224290913        1.19921471192572
C            4.89659583398394        0.43052334123843        1.92797024975536
C            5.73096143953512        0.67889812954009        2.99537998765374
C            6.03011831628782        1.98463088703432        3.37399337590458
C            6.90923030049475        2.29178797335399        4.50482853235073
C            7.63309374744934        1.35590537112852        5.27802812349960
C            8.31442713608494        2.07902795786753        6.22647561076280
C            9.21501700406479        1.59671662297854        7.27178702409867
C            9.65292074101763        2.45122892426867        8.28283044944914
C           10.49958192160309        2.00044202962035        9.27164379040300
C           10.92887316607344        0.68835496605387        9.27129444490821
C           10.50742154663495       -0.17283189358521        8.27765650629680
C            9.65939576400649        0.27436996189196        7.28823199007997
N            7.96168315673925        3.39573213061481        5.96789312495504
N            7.13544785866755        3.53114605241194        4.95033173958144
C            5.46381299607189        3.02818431803737        2.64163827295527
C            4.63002092602036        2.79061400414901        1.57384711000069
S            3.94467600116242        4.18043354552232        0.72057059173199
C            3.72161309736620        3.46715548955676       -0.88332535863691
C            3.76015611861968        4.29791580945945       -1.97921166040188
C            3.55288757131214        3.81423118532883       -3.27132483946339
C            3.61136325146949        4.73738651979846       -4.40699245231782
C            3.38594802615747        4.40571990843680       -5.76223217629738
C            3.55587589472604        5.56416393822758       -6.48007443242273
C            3.43296719469194        5.77007202404369       -7.92192409892619
C            3.84293431178804        6.96747381108178       -8.50710290854525
C            3.72910420788376        7.16551125586653       -9.86571870751183
C            3.20277224166976        6.17326575562005      -10.66851956701573
C            2.79096308438374        4.98064752928379      -10.10760556968615
C            2.90471506104478        4.77887653098956       -8.74951942146209
N            3.86959665753475        6.51560233107271       -5.51997331201045
N            3.90087485568306        6.03685953320818       -4.29246880850079
C            3.30069584464780        2.45451753362080       -3.43065580264301
C            3.26752535594099        1.61344387419365       -2.34065972642990
C            3.48212629587453        2.09598899058263       -1.05037678492027
H            0.42294038511532       -0.33850356807411       -0.03740431119766
H            0.96788506106450        1.01336793953437       -1.02646570806305
H            0.82044956278245        1.20911736137238        0.70942342277072
H            2.85588095573003       -0.64471232353149       -0.66150116359477
H            2.66891920376998       -0.44348208865150        1.06329219205472
H            4.70746325128286       -0.58419797546591        1.62559199793308
H            6.15992601523598       -0.14160103814161        3.54273527306357
H            7.64264465087988        0.28715405365779        5.15599534000007
H            9.31539543845038        3.47217697755456        8.29058080425343
H           10.82609616348019        2.67284125816645       10.04801275674608
H           11.59130785134505        0.33651599560718       10.04526043551010
H           10.84404670347540       -1.19660160436484        8.27573006661288
H            9.33896860428254       -0.39869768215535        6.51250059057645
H            8.31896808118383        4.20785607100919        6.48135208448212
H            5.68199844571644        4.04263779720365        2.92340704910458
H            3.94692135418088        5.34727631897626       -1.83776586598814
H            3.14197101415414        3.43563825587342       -6.15780475373691
H            4.25933810301282        7.74017260907155       -7.88597083832184
H            4.05249185013410        8.09607582492809      -10.30288900208037
H            3.11315936058798        6.32941040044437      -11.73115092746339
H            2.37932606425183        4.20606760856609      -10.73374848743797
H            2.57722612797281        3.85008526560954       -8.31652673857572
H            4.03233701281734        7.50900378382620       -5.71374860628618
H            3.13929269709939        2.05877939388105       -4.41760532434713
H            3.09544594739431        0.56179172413132       -2.48454474776884
