49
 energy: -9.819089300805 gnorm: 0.000960790281 xtb: 6.5.0 (97a52f5)
C            1.81045196322864        1.01514552094809       -1.05485531635471
C            2.29475754644528       -0.18155293788548       -0.25150215512656
N            2.96981778406698       -1.20582701197677       -1.07481553238308
C            2.18191620275703       -2.23780961099649       -1.66749114166764
C            0.80748812755783       -2.08558594321481       -1.85592253205985
C            0.05230209543540       -3.04852608689825       -2.48824840737880
C            0.64124430094209       -4.21645605824103       -2.95657247400122
C           -0.11341418190141       -5.26161392659898       -3.64937699060983
C           -1.47568890854397       -5.21093246761195       -4.04049767735489
C           -1.72681032709479       -6.39104283835477       -4.66267942933461
C           -3.02523817964155       -6.85407269101086       -5.29177557457767
F           -2.86204441759297       -8.10741209992534       -5.74536837487329
F           -3.99158624454612       -6.81832289942667       -4.35957846699816
F           -3.32973108594990       -6.02844301463159       -6.30634899803286
N           -0.54417515972875       -7.08571968849230       -4.62369529484060
N            0.42248111262101       -6.42002010319304       -4.02453805954465
C            2.00765594267932       -4.38840191882932       -2.74453363389349
C            2.76592481250819       -3.43411650648648       -2.10809051798591
S            4.46604685341151       -3.82092118074663       -1.85480159560397
C            5.13554044582862       -2.19833798755564       -1.70441400765624
C            6.47421448490749       -2.05917522419369       -1.98566234354625
C            7.12642332328566       -0.83469565636809       -1.85541795639319
C            8.54918971713333       -0.74351881528935       -2.18546588788480
C            9.34075521505178        0.43249101598858       -2.22566775169324
C           10.58263068607080        0.03054364670879       -2.59896259814763
C           11.81069380015283        0.89000078642602       -2.82291406820369
F           12.86883269907184        0.08722460021613       -3.01936230641300
F           11.60424074972210        1.65960201554287       -3.90393181842201
F           12.00290937602206        1.65783021551398       -1.73751042821414
N           10.49445966599600       -1.32855037095301       -2.76582883535071
N            9.28710377404311       -1.79756108398311       -2.52258358597723
C            6.38549841894380        0.25228207104801       -1.40890962442972
C            5.04300254320244        0.12097075451642       -1.13033716089115
C            4.37594880080764       -1.09393656416515       -1.29226949972415
H            1.30066752987698        1.74714323270634       -0.42499307775024
H            1.11820995816094        0.71811072843284       -1.84230633547906
H            2.63317329595013        1.52777176683919       -1.55316344052073
H            1.46549037869880       -0.66492452918545        0.27591943025980
H            2.98510509850243        0.12747768549131        0.54043551029554
H            0.31677356145143       -1.19606958348356       -1.50666869983163
H           -1.00455804447786       -2.89768265625780       -2.62276899880787
H           -2.18129095611165       -4.40943553195766       -3.89632507356756
H           -0.40967217754653       -8.01899478872362       -5.02714379521856
H            2.47651759625369       -5.29658892598030       -3.08234227809479
H            7.03831147588360       -2.91745418436379       -2.30806345178517
H            9.03988958591292        1.44598985086649       -2.01739974453338
H           11.27550011475099       -1.92652582693775       -3.05607842600247
H            6.86836376601369        1.20531975109540       -1.28119164869811
H            4.50359687978729        0.98322507157953       -0.78494992469486
