59
 energy: -12.650077287213 gnorm: 0.000712600739 xtb: 6.5.0 (97a52f5)
C            0.88760656091640        0.10624989559757       -0.02408264687228
C            2.39905965327686        0.01378198725142        0.02723364621708
N            3.00838914015148        1.14906740761689        0.75554256989007
C            2.58889430971978        1.42895254232472        2.08324290398624
C            2.18964625596983        0.40677157469966        2.94755686876907
C            1.83184227057080        0.67109255785878        4.24513639814929
C            1.84998998097183        1.97286782739055        4.75341863840236
C            1.47881613729569        2.31838322539072        6.10852748716583
C            1.09616255962596        1.49703986450499        7.12433844958611
C            1.04460979096567        0.10698466043881        6.98304707028747
N            0.99983635938878       -1.04873911141732        6.86643766837515
C            0.74477094406382        2.04617359278929        8.44693897545165
C            0.81436076597289        1.23758646129849        9.58325608806065
C            0.49396483791276        1.72787584801578       10.82857825822008
C            0.08755442726378        3.03887607066514       10.97086045037920
C           -0.00028901293710        3.85484981704754        9.86114497283616
C            0.32217686933268        3.36753335770007        8.61413266261643
C            2.24611418329955        2.99634843353224        3.88042291541583
C            2.60542632362854        2.74181867370775        2.57816876295615
S            3.04708420778688        4.10781401201759        1.54792686620776
C            4.14888893884529        3.29762734276860        0.42906110726088
C            5.15128844361053        4.03889522674570       -0.15016704883778
C            6.05216638403851        3.47897328331070       -1.06750025556027
C            7.09160343215203        4.31849000692260       -1.62358412433346
C            8.06194654523741        3.99331131171856       -2.52104829021393
C            8.15756712683831        2.71687053145209       -3.08305984317530
N            8.23904313468103        1.65716318203842       -3.55354709590971
C            9.05534580200161        4.98797681914661       -2.96433094047465
C            9.79372485770473        4.76562552902219       -4.12865454706410
C           10.72677604405801        5.67646337132503       -4.56853524304669
C           10.95352368966225        6.83344272751270       -3.85194918397949
C           10.24539442698566        7.07100985472297       -2.69156449205650
C            9.30991450963179        6.16175778227089       -2.25001675964877
C            5.89024766041374        2.12549457700407       -1.37574070140051
C            4.89525346562532        1.37611409764046       -0.80093816199787
C            4.00038423915228        1.93843861653329        0.11316908707097
H            0.44464942664026       -0.71565707472821       -0.58980849553315
H            0.57367908478233        1.03997159979009       -0.49256231712495
H            0.45307318669725        0.09003896406239        0.97560189527165
H            2.79657516912570       -0.00039423056028       -0.99174596119782
H            2.73157394371852       -0.91875512167420        0.49329406776357
H            2.19312466352169       -0.60861950648453        2.59380498985462
H            1.54189307110455       -0.14260052964323        4.88097175654755
H            1.53929471508908        3.36772997849043        6.33354824753399
H            1.12911454387015        0.21482189858413        9.47402753968507
H            0.55931524117595        1.08698283051423       11.69260239665003
H           -0.16545609507042        3.42310349174193       11.94537553252390
H           -0.32765775074178        4.87588324059443        9.97060738512278
H            0.21817301179820        4.00688243456305        7.75558297826880
H            2.26487075655700        4.01304502652682        4.23227126337890
H            5.24016765363897        5.07927907365633        0.10969039705253
H            7.06893550819841        5.33671435627763       -1.28120776718114
H            9.62296545529306        3.86201097545712       -4.68658418425744
H           11.28207039813906        5.48529502932838       -5.47216184779803
H           11.68518474851123        7.54670415447891       -4.19456522204532
H           10.42891421760533        7.97009465486364       -2.12627715916794
H            8.79081506246894        6.35019064965534       -1.32754834847484
H            6.56034156331193        1.65463116379748       -2.06841561210993
H            4.83077715874253        0.32542398213960       -1.02087404748669
