57
 energy: -11.517415220314 gnorm: 0.000574287102 xtb: 6.5.0 (97a52f5)
C            1.78024431830120        1.17066437775634       -1.10810520444810
C            2.37477684757583        0.01215663033275       -0.32758378388587
N            3.00093968745772       -1.01287346383686       -1.18654981924954
C            2.18380143920505       -2.06464322214517       -1.69938687322835
C            0.79213609342725       -1.94572571829272       -1.73846390875800
C            0.00182001410011       -2.91785991544747       -2.30550254832881
C            0.56641536762745       -4.06771237225213       -2.85266389688443
C           -0.25248610319577       -5.07067160174738       -3.46861730914820
N           -1.52737948806616       -4.95335745822581       -3.61225900253901
N           -2.25417887690019       -5.90021082228521       -4.22130487621772
C           -3.61960822147024       -5.79064765889892       -4.52777427981928
C           -4.29252896337910       -4.64188239076221       -4.13585384728875
C           -5.62131903105027       -4.49802027137830       -4.43620890705116
C           -6.23445305989206       -5.51765054706396       -5.12288888130232
C           -5.48996392205230       -6.62341411372907       -5.47101730048396
N           -4.20972076778579       -6.79044187308658       -5.19729621275661
C            1.95836979778355       -4.20961249429666       -2.78632794047035
C            2.75204141090995       -3.23958628552435       -2.21953562155014
S            4.48544279196237       -3.56695126091242       -2.14815836159583
C            5.10896708924074       -1.91629377425393       -2.08585773308175
C            6.39166061751981       -1.71846656759460       -2.54314069226102
C            7.01013378447273       -0.46550614379188       -2.48523932969832
C            8.37707441087260       -0.26976152239697       -3.00554481801673
C            8.83578095360455       -0.99652039571338       -4.10613644275056
C           10.10333913836146       -0.81057076328640       -4.59762087497732
C           10.97966111953090        0.11059929747585       -4.01634117810406
O           12.25361688470846        0.24017538861171       -4.58262638351452
C           13.07729108970209        1.20736354951645       -3.97156530752420
C           10.52084487146401        0.83621448674043       -2.91247100986720
C            9.25175944791558        0.64920664949845       -2.42168822211599
C            6.28564326087325        0.58297104634417       -1.92403855233743
C            4.99845268975272        0.39428420983326       -1.47350990497704
C            4.36423086289989       -0.84650938312739       -1.56588705969043
H            1.31597320509031        1.90873941530982       -0.45100952004380
H            1.02018197949144        0.83406740197368       -1.81274273503079
H            2.53517528148160        1.68762874958631       -1.70021952812392
H            1.61462430785295       -0.47877269029895        0.28925263451548
H            3.12643617761804        0.36316555739912        0.38726430502353
H            0.32040507712531       -1.07302068462227       -1.32685090773726
H           -1.06727069987556       -2.80155328622883       -2.33962954602324
H            0.22285011120988       -5.95288086393589       -3.85758782421561
H           -1.76945040514447       -6.72834967147112       -4.55620751032476
H           -3.75493372363953       -3.87814739770726       -3.60276694260970
H           -6.16679785239885       -3.61534552369396       -4.14478296669619
H           -7.27781284861630       -5.45292354863012       -5.38460846792624
H           -5.97019888358366       -7.42631659325900       -6.00988112214550
H            2.41982646197444       -5.09735868303341       -3.18276341838892
H            6.93710128440557       -2.56111437949958       -2.93012032642075
H            8.17383833041852       -1.69633170850904       -4.58562810862357
H           10.44740801964940       -1.37087248752504       -5.44886707489493
H           14.03258325559591        1.23357384876446       -4.49756208659265
H           13.25615799290360        0.94017717687753       -2.92912786918947
H           12.61071139870141        2.19119873277353       -4.03937648337319
H           11.16926559340192        1.55003419721654       -2.43823808622182
H            8.92554381409693        1.20618212558146       -1.56068468839270
H            6.73299589333997        1.56009875000395       -1.87096559592134
H            4.47097067341946        1.23010594688334       -1.05299004672007
