59
 energy: -12.306016679341 gnorm: 0.000757091119 xtb: 6.5.0 (97a52f5)
C            1.31621883743824        0.26703480452906       -0.02262014253546
C            2.79506872677632       -0.04706009909193        0.07370396998563
N            3.19256676275578       -0.46889813167174        1.43358465124223
C            3.83820331476184       -1.72771744259096        1.61506440873204
C            4.73498989317908       -2.22120345269603        0.66522075231481
C            5.39160144510891       -3.41275688371602        0.86119746598596
C            5.18101893689390       -4.16363421326075        2.01797857042313
C            5.86738005095552       -5.40508967091399        2.22300378704416
N            6.73220300504695       -5.88262060939975        1.39522126363791
N            7.33963867448281       -7.05458891408165        1.61721347017795
C            8.33729886553964       -7.61768995441421        0.80594606575259
C            8.75554213700134       -6.90964906801540       -0.31236000609872
C            9.72914681819959       -7.43345756952168       -1.12116239555469
C           10.25376515229397       -8.65639759476615       -0.77975581033714
C            9.77945072787072       -9.28893610424546        0.34862394271254
N            8.84421494459832       -8.81048231732157        1.14759624843779
C            4.28469383478740       -3.66700506308310        2.97443860596711
C            3.62630751650793       -2.47478871579616        2.78470273924536
S            2.49862874343546       -1.92983311730471        4.03404346904667
C            2.61574418796375       -0.17979234079114        3.80030814557706
C            2.38845876472771        0.64014186083071        4.87995014541626
C            2.42251450934978        2.03540189106737        4.76171427237724
C            2.16484929844410        2.90911593916663        5.92786349014092
C            1.22318046204470        3.91728975722764        5.83172507488624
C            0.92421976695764        4.74317717997757        6.91123185644400
C            1.56254180556431        4.57932864039108        8.10674832478614
C            2.54556318521941        3.57938926441753        8.26566603789891
C            3.23052212821969        3.40534289165600        9.48915965480253
C            4.20095371826113        2.45559722757989        9.61592607832444
C            4.53612690432675        1.64289172263517        8.53055528715025
C            3.88814404857332        1.78150935310069        7.33706069299336
C            2.86499000238227        2.73834815359945        7.16925364031469
C            2.67542561661386        2.57656558636827        3.50029506194104
C            2.91213972077595        1.76329647094335        2.41741821452664
C            2.89888728149567        0.37261823521340        2.54167457938765
H            1.02190157966361        0.55573238631922       -1.03378007529761
H            1.03842312771707        1.08146203400514        0.64718105445435
H            0.71765570576518       -0.59867311776369        0.26460525204205
H            3.40919195929524        0.81049142114910       -0.21888562220670
H            3.04585924425974       -0.84847109281637       -0.62764111064296
H            4.94366727811905       -1.63769077082956       -0.21379266392450
H            6.08504543485761       -3.78130365745921        0.12568351048556
H            5.65636380989297       -5.96550750514002        3.11545914206830
H            7.05925440049096       -7.58661325676610        2.43662157965799
H            8.30570583474533       -5.95637770496793       -0.52542116159802
H           10.07183029395739       -6.90440495208876       -1.99555707964650
H           11.02179658997616       -9.11227464262936       -1.38277990186778
H           10.19061827762022      -10.24989396283765        0.61905949060147
H            4.10488748899244       -4.22743064232963        3.87513968618506
H            2.15380240506795        0.19663175981637        5.83160783385017
H            0.69727022478601        4.04651997199389        4.90145175297211
H            0.17943427190817        5.51437450477767        6.80127824997831
H            1.32784612755770        5.21811016216099        8.94064749656526
H            2.97824875838552        4.03860533024993       10.32214894053778
H            4.71773938644989        2.33415718871139       10.55376807647449
H            5.31473318983086        0.90549381549125        8.63792259059808
H            4.16972060627627        1.16481650293580        6.50256299424538
H            2.70230171565384        3.64668971839469        3.38901177202016
H            3.13828250017740        2.20184879359880        1.46204657930008
