53
 energy: -10.917171151609 gnorm: 0.000778827046 xtb: 6.5.0 (97a52f5)
C            1.27332227798745       -0.29465817127642       -0.05487788429894
C            2.77673722223962       -0.17325752952972        0.08134199376266
N            3.16822651557063        0.64469969032499        1.24819084650293
C            2.68596893943467        0.29109894080341        2.54332486899817
C            2.53754289861261       -1.04560627486600        2.91471079202979
C            2.11531985862960       -1.38774914029249        4.17773040925785
C            1.82278178078652       -0.40582822487524        5.12386505322750
C            1.39011689965357       -0.76336426123132        6.44329991997032
N            1.26438743514427       -1.98209060151646        6.84211711340346
N            0.85547127691872       -2.27293778671503        8.08465509368208
C            0.71004384168388       -3.56932706483974        8.60387363470356
C            1.04367724683326       -4.64587142337604        7.79337527800136
C            0.91450027849090       -5.92244146004114        8.27366900651484
C            0.45156809344021       -6.07780786948188        9.55795560947376
C            0.14349041794668       -4.95282871077846       10.29189239789290
N            0.25803445201443       -3.71144686744195        9.85796920397290
C            1.96447682053974        0.93748302159767        4.74876507056675
C            2.38344240415809        1.28570647168782        3.48627838678328
S            2.49750882692397        3.00459510245348        3.07789287394711
C            3.78286865753621        2.93981025884050        1.86223120397390
C            4.58994959216043        4.04200159058774        1.70315667176652
C            5.60598833277349        4.07505019109047        0.74132121728838
C            6.46348060734809        5.26757723480876        0.58496247900935
C            6.82992602146223        6.03723711825843        1.69069060603902
C            7.62931650926603        7.14944663795668        1.54467945796784
C            8.07977379236420        7.52020047387532        0.29329972576298
C            7.72800735965100        6.77306500002349       -0.81335010829728
C            6.92963073718151        5.65950960868501       -0.67127909870859
C            5.78199114447262        2.94616816407815       -0.05742925339859
C            4.98213783067978        1.83703947030731        0.09772465918519
C            3.96782185202544        1.80759188862774        1.05537017992992
H            0.98519645447757       -0.88249261221138       -0.92875862274409
H            0.81290053472326        0.68999122097379       -0.14868519846226
H            0.83341072009491       -0.76950142739113        0.82276504162543
H            3.19328126853012        0.28342710659732       -0.82161496639525
H            3.25352766362590       -1.15464728338495        0.16725761838396
H            2.78088857229078       -1.81715536231881        2.20646301805471
H            2.01064005464864       -2.42143357497123        4.45705449613249
H            1.16364683579622        0.02413166007331        7.13903875895290
H            0.61435992729349       -1.49909652666911        8.69812842447915
H            1.40113862449823       -4.45799980532666        6.79652390198296
H            1.16736719492907       -6.77582795819321        7.66536352240103
H            0.33212169356096       -7.06083201080418        9.98318531889561
H           -0.22011007615059       -5.07298128724565       11.30151088751531
H            1.73570170021505        1.71353587092806        5.45789657053544
H            4.41605374132733        4.90488600217587        2.32119994550953
H            6.49512511022108        5.74193318573758        2.66984550447734
H            7.90606810949320        7.73053361317089        2.40924129786680
H            8.70466595832738        8.39109252387131        0.18069362282313
H            8.07708921382612        7.06383920109666       -1.79068832271493
H            6.64384976458516        5.08987364465026       -1.53846987264458
H            6.57392294195613        2.93834683355680       -0.78596594805916
H            5.16657406779827        0.96055150793034       -0.49769240752513
