56
 energy: -12.016883058752 gnorm: 0.000630979366 xtb: 6.5.0 (97a52f5)
C            0.98657887539966        0.18395900010881        0.10078320722909
C            0.20754023377200        1.25992913342069       -0.09486447466838
C           -1.23854489930165        1.19036783737534       -0.10437802613795
N           -1.88556988643625        2.33954474844020       -0.34280184164250
C           -3.19572164521890        2.25476816679420       -0.34822265369945
C           -3.86546125370858        1.08284009202864       -0.12485733457389
C           -3.10642407781576       -0.03090253798860        0.10892188809884
N           -1.79369755615106       -0.00724458803077        0.12382261306327
C            2.43551571642490        0.17448298224586        0.12487325007284
C            3.11360153769494       -1.03617308173224        0.28934113229248
C            4.48619755124703       -1.08289107257958        0.31329379330872
C            5.24842293691600        0.07941135956210        0.17712329806878
C            6.72418016670496        0.02977749720268        0.20128872386243
C            7.41795085691160       -1.05083777015330       -0.34976555027133
C            8.79016309912017       -1.09466534535600       -0.33004310141571
C            9.53170689883812       -0.06253633333499        0.24335491131583
N           10.96189533665930       -0.11113870465319        0.26937441421346
C           11.68348819188410       -0.74035463844739       -0.80121069203855
C           12.83025617736764       -1.48788600885681       -0.54395390670706
C           13.52183724574500       -2.09009143463597       -1.57085657741474
C           13.08247784166143       -1.95693628369886       -2.87359229610587
C           11.94800672564357       -1.21754073770403       -3.14573842350961
C           11.25502581214084       -0.61404642291250       -2.12057489361874
C           11.68284619282448        0.45858410658770        1.37329182467204
C           12.88888292136744        1.12464547030821        1.16890894747851
C           13.58070519145587        1.66641964273442        2.22879572263495
C           13.08232948547777        1.55297252834925        3.51203459900308
C           11.88825735770513        0.89447264280276        3.73175282225545
C           11.19497310631760        0.35151627678445        2.67357356720060
C            8.84260067417731        1.01693229940583        0.79478263798718
C            7.47053211137554        1.06315904463810        0.77368087302712
C            4.57068983381920        1.29009331492912        0.01670475501812
C            3.19773417059743        1.33810718237846       -0.00941327318582
H            0.49458549151828       -0.75991647130838        0.25043611587749
H            0.64914523942813        2.22389274326142       -0.26006840266102
H           -3.74952927340798        3.16231370350781       -0.53791304837664
H           -4.94198843807554        1.03908835083616       -0.13059681154385
H           -3.58602657778108       -0.98111886133705        0.29231803089334
H            2.54366071000756       -1.94292979364818        0.39884354487361
H            4.98740357803297       -2.02418310965555        0.45760405143293
H            6.86388892591250       -1.85012230326888       -0.81020344409379
H            9.31164712202071       -1.93711922263929       -0.74926445087498
H           13.16298758463513       -1.59541009865360        0.47356923589867
H           14.40679711582719       -2.66717293800211       -1.35786977487253
H           13.62413583937722       -2.42907621047895       -3.67684454032949
H           11.60501808676753       -1.11259488950708       -4.16203393735885
H           10.37634744808917       -0.02887368199433       -2.32822275481896
H           13.26833237231370        1.21698840148925        0.16635446949834
H           14.51214179866538        2.18062005723574        2.05695429608976
H           13.62461688791042        1.97729647592071        4.34111008876658
H           11.49913964279418        0.80457258255636        4.73276728773016
H           10.26996507106412       -0.17214169793767        2.84014394843102
H            9.40552306010554        1.82341424077115        1.23081781973835
H            6.95658802412439        1.89746594574600        1.21827454896179
H            5.13955400233117        2.19542034821561       -0.10554396832248
H            2.70532935772012        2.28594806287336       -0.13274224074804
