44
 energy: -9.167694573473 gnorm: 0.000838966889 xtb: 6.5.0 (97a52f5)
C            1.62977534109338        0.95995922028111       -0.88682109928084
C            2.32418075714609       -0.17881034823906       -0.16312480969280
N            2.93193982879945       -1.16539409107501       -1.08093716372072
C            2.12589979271129       -2.25352348830809       -1.53207855941715
C            0.73431733604414       -2.20891186483784       -1.42870914705538
C           -0.05875265899415       -3.22875169542040       -1.91158360771660
C            0.51748290100076       -4.32708393973186       -2.50887283660442
C            1.89373676826247       -4.40408022202210       -2.60607481861198
C            2.69763627756969       -3.39210103499192       -2.11833143406888
S            4.44123706264286       -3.63469059181123       -2.23989797317929
C            5.01651012783838       -1.97039862051056       -2.11783757751096
C            6.28029860923111       -1.71851625597396       -2.59757554359514
C            6.87406514401080       -0.45104675494049       -2.50777888712614
C            8.20882493146597       -0.26759317057695       -3.03425784199289
C            8.96106843502576        0.86736684233915       -3.08276155383120
C            8.48993708100394        2.08470974693291       -2.58254023444755
N            8.11217990382385        3.10289817056884       -2.16707635137205
C           10.31724658154159        0.87259162163950       -3.65750915851612
C           11.10677723221865        2.02161059327143       -3.55992559908790
C           12.37927490988279        2.06493664282554       -4.08165767355861
C           12.90189087360034        0.95900154323907       -4.72003393018510
C           12.14230322015984       -0.18752430968668       -4.83488431704233
C           10.86810402606479       -0.23305076490935       -4.31354861481139
C            6.12580253826808        0.55461461875798       -1.89423744745586
C            4.86169057289423        0.31379622770068       -1.41728640079426
C            4.25983051908806       -0.94370835331179       -1.52896045448042
H            1.17985208121093        1.67095830243905       -0.19084112048282
H            0.83990887906571        0.59532735942735       -1.54319852204862
H            2.32071221860478        1.51453869019739       -1.52142865282356
H            1.63137211711726       -0.70820993267986        0.49922114429120
H            3.10692139099041        0.19594636615450        0.50472309771145
H            0.26134330496462       -1.36098370229630       -0.96944595357651
H           -1.13115986973748       -3.16434856708410       -1.82525957562676
H           -0.09886402899116       -5.12416783479196       -2.89100805965666
H            2.35877234903079       -5.26615833476281       -3.05551539474441
H            6.83225397904922       -2.52762259508116       -3.04413828866173
H            8.65103226852568       -1.16376517560891       -3.42724461059076
H           10.70450061320788        2.88668262957210       -3.06338311761699
H           12.96813088383118        2.96325331581399       -3.99272858293295
H           13.89830773716867        0.99114441008202       -5.12946965814581
H           12.54867860145659       -1.05085450970771       -5.33637027494126
H           10.29394660562530       -1.13396060109082       -4.42937287814853
H            6.54119002367375        1.53854521393024       -1.79517930321878
H            4.32299273280840        1.12075524427988       -0.95615721363448
