10
 energy: -1.629006388842 gnorm: 0.000791603003 xtb: 6.5.0 (97a52f5)
C            0.93903365966079        0.04748345176450        0.06740174690741
C            2.45750212626028        0.04232585737373        0.06481526583830
N            3.00501282051035        1.15567653742869        0.69591450568744
C            4.21784805089641        1.42521826068523        0.84719809118931
S            5.74865750012080        1.76293902600904        1.03598352509420
H            0.52321910882261       -0.83156680273177       -0.42840799043818
H            0.55429316744138        0.93182747636958       -0.44147921099504
H            0.55398395934097        0.06978317477390        1.08733873947955
H            2.84319462369190        0.00890437869600       -0.96271604870919
H            2.84278498325450       -0.85648136036890        0.56418137594620
