84
 energy: -15.122765713443 gnorm: 0.000366990381 xtb: 6.5.0 (97a52f5)
C            0.84513295612366        2.40657439932998       -0.36162674043772
C            2.15266311491008        1.64289283290239       -0.43175067639092
N            2.97657576212667        2.02571856170543       -1.57957651441539
C            4.35172327493498        1.85427649256324       -1.74326209000956
C            5.01866509911561        2.74730289850106       -2.57224704716171
C            6.39172215296208        2.68355290321328       -2.79869103651363
C            7.13507847167855        1.66734235927775       -2.16652040649252
C            6.45773064155981        0.75843735849851       -1.33373112005576
C            5.10550335511817        0.81285417760466       -1.12314688856314
C            4.46579013852475       -0.25432242089697       -0.30889490763013
C            8.53553555292666        1.58086799645752       -2.41120260377351
C            9.34071423326122        0.52755566880762       -1.74140834479469
C           10.24141775721152        0.89339513721843       -0.73972354102284
C           10.98407918814986       -0.04766559808860       -0.06798083070754
C           10.83811775593968       -1.38509693007913       -0.37231941439984
C            9.94821255404885       -1.77315382071928       -1.34706494600720
C            9.19567448170772       -0.84173513709575       -2.04460530894202
C            8.22526593819185       -1.34637738592181       -3.06136156591015
O            7.56641053966133       -2.33538720278467       -2.79221752982459
O            8.13903309476934       -0.68944619597599       -4.25263533026293
C            9.12222225834303        2.49385229423883       -3.27388353893417
C           10.58285675871844        2.39282845398659       -3.62085853475415
C           11.19923682699754        3.74488258755919       -4.00623069010175
C           10.36277992526621        4.44866091871538       -5.08588127968191
C            8.89767959530601        4.48047506884934       -4.75515339391943
C            8.07237913474971        5.44643139384485       -5.25789331993593
C            8.43685107185288        6.43481770195969       -6.19179205131906
C            7.67451936053244        7.51369033258681       -6.55844236974473
N            8.05311591170514        8.43845350513047       -7.50633399999437
C            9.27320495246576        8.35602798934367       -8.30543953402409
C            7.14883668941243        9.52535071555316       -7.58584185985123
C            7.22248901066881       10.68273734567436       -8.38240894390843
C            6.25059397370637       11.62529667503243       -8.27852602045083
C            5.16352619675257       11.46420880721713       -7.38162014430047
C            4.15717245087039       12.44625979811102       -7.27184123336018
C            3.11752012525077       12.28603631350197       -6.40716082129445
C            3.03012488445026       11.13875434593038       -5.61303419292576
C            3.98197599514480       10.16882189125991       -5.69171415418592
C            5.08052388969458       10.29859723214068       -6.57321587577076
C            6.10978636324279        9.33030853728176       -6.69659126070905
C            6.33808639801202        7.99637684633609       -5.97341781353027
C            5.20944991039927        7.01193942092013       -6.32004450159534
C            6.47500242114726        8.22304577032360       -4.45854491955273
C            8.32714004221652        3.50583092246387       -3.86459003448291
O            6.98586698238127        3.61027438071733       -3.62846967276070
H            0.24530404697801        2.11115777403364        0.50119074956704
H            0.24375202664057        2.23598256286392       -1.25538758662061
H            1.02141847496100        3.48035758528288       -0.28852565802471
H            1.95600123599080        0.56738307862994       -0.49005868967035
H            2.73870890022461        1.81135256998389        0.47863291589189
H            2.53282173890840        2.77855400614789       -2.09929649520624
H            4.46568035238859        3.52923446006093       -3.05622016652383
H            7.02425595140203       -0.02818262199644       -0.87064783231892
H            5.16980171494785       -1.05926605978619       -0.09480645043550
H            3.62713447147995       -0.69998067198298       -0.84312864520825
H            4.11658113393781        0.13114220417456        0.64828908519844
H           10.33655929019079        1.93509703747988       -0.48558513282685
H           11.67422521426299        0.25796101175757        0.70098479416760
H           11.41488015835562       -2.12502963981327        0.15787589568370
H            9.81614282012686       -2.81674836669283       -1.57673446751165
H            8.73152269064278        0.08855304429955       -4.26276717522537
H           10.69732256098928        1.68932653860820       -4.45291211243893
H           11.13646109028344        1.94975204226094       -2.78599829620933
H           12.23620104319274        3.61430127053793       -4.34443446193356
H           11.25660213441431        4.38363283841197       -3.11671562442820
H           10.49704826075885        3.94559635166577       -6.05009700098181
H           10.72730777931432        5.47317269254132       -5.22530806186353
H            7.05772507990020        5.42769193000898       -4.90835194745747
H            9.39879366829273        6.33881889810463       -6.65960545076420
H           10.13378834674870        8.62197527491436       -7.69583194706969
H            9.22322373988535        9.02970921477209       -9.15635614533810
H            9.40270334084045        7.34535182163056       -8.68575184581521
H            8.04755446420373       10.81906957975353       -9.05751597384304
H            6.29617007288034       12.51602799405772       -8.88067793416760
H            4.22232530458693       13.32949275024687       -7.88321578312350
H            2.35642255976255       13.04515718972044       -6.33285436865600
H            2.20093344376290       11.02478589523716       -4.93435182927054
H            3.89346312685120        9.29184461405116       -5.07843527024592
H            4.24244206293208        7.38374582501297       -5.98886238471342
H            5.36323087095501        6.04043803962391       -5.85721624056096
H            5.15689578919449        6.86349828443725       -7.39764912740001
H            7.27443398144122        8.93412342503204       -4.25505677509241
H            6.71067014124521        7.29934474482975       -3.93486476899839
H            5.55934372389927        8.61953946679880       -4.02693478612783
