78
 energy: -13.733431002575 gnorm: 0.000483618449 xtb: 6.5.0 (97a52f5)
C            1.06939046473544        1.02684490572070        0.08702580988959
C            2.33668723050399        0.24102278701243       -0.18534739860527
N            2.99729467180406        0.63392600622750       -1.43261852215677
C            4.36720631997444        0.58164581255716       -1.70099214758478
C            4.90962558387064        1.55815580371739       -2.52613257427879
C            6.27066315841296        1.62596834690074       -2.81569279499912
C            7.13151239876652        0.65790275397303       -2.26011474771433
C            6.57619512124008       -0.34401602503876       -1.44387749890314
C            5.23618695046839       -0.41889595609386       -1.17255936848432
C            4.72556253358870       -1.57355470498139       -0.38731130104487
C            8.52443691884157        0.71861377635586       -2.55471711113533
C            9.44945465690519       -0.28828079047404       -1.97402130308170
C           10.37180268675771        0.09791059083320       -1.00059825052291
C           11.21621865031112       -0.81633998795765       -0.41706412300876
C           11.15409343631883       -2.14556468361814       -0.78260491101104
C           10.24512125885604       -2.55495934191277       -1.73058991979491
C            9.39214252943184       -1.64800705383588       -2.33813202759539
C            8.39901811179203       -2.15326906902457       -3.33313829361619
O            7.63422251816115       -3.04023830142793       -2.99789952725804
O            8.41731248871722       -1.59494547595440       -4.57625565812792
C            8.98808487621933        1.73655904773773       -3.37294148171228
C           10.43604803476376        1.81363634482209       -3.77006057873298
C           10.90241938392605        3.25713870587450       -4.00381657334602
C            9.98649437337026        3.98315121263679       -5.00263962124123
C            8.52395524810551        3.77140798201122       -4.72649909837717
C            7.57227959450175        4.60349341866517       -5.24480628891924
C            7.80485507045398        5.68493772121984       -6.11199883983595
C            6.84805828768395        6.53835310114343       -6.59595942583988
N            7.11264742738939        7.58702574926385       -7.45142665891312
C            8.43794515725691        7.92057573770936       -7.96612513020572
C            5.94472292563002        8.32537891909548       -7.77933384766632
C            5.77127886267456        9.44089402592798       -8.58755840683042
C            4.50604352397614        9.96936628571271       -8.72872303510711
C            3.42384258594156        9.40059228653391       -8.07712473058482
C            3.59109319182790        8.28970996095502       -7.27090309502397
C            4.85358122240187        7.75491979669882       -7.12448334250906
C            5.33680251899322        6.55213228299816       -6.31384230646669
C            4.65814470427304        5.27573577968202       -6.83507506167461
C            5.04910496759820        6.78518464206642       -4.82261225292091
C            8.07824093347790        2.69095221340704       -3.88817102709888
O            6.73918664565637        2.63801006546547       -3.62524364440042
H            0.59425942056575        0.72419871129705        1.02198897029093
H            0.34163706392417        0.88680374118042       -0.71316079499514
H            1.27772813543346        2.09534010918029        0.15385151446611
H            2.11378936323131       -0.83015065767904       -0.23478732511768
H            3.05035297482336        0.37902276580423        0.63462689901247
H            2.45940839939741        1.35823187584531       -1.90135990564294
H            4.26802257685968        2.30905818131171       -2.94540616521349
H            7.22888635453105       -1.09832816823509       -1.04487831582050
H            5.45656696621173       -2.38243958412768       -0.36236213504180
H            3.81961946147449       -1.97876362817527       -0.83663752378416
H            4.51602843230606       -1.29032671825563        0.64377870716236
H           10.40222959371183        1.12994695852600       -0.69617002552929
H           11.92178739995050       -0.49670355883505        0.33194342445422
H           11.81193250563657       -2.86332164897431       -0.32068343666505
H           10.17885784420232       -3.59311203775731       -2.00812244700063
H            9.12279565892043       -0.92064698581305       -4.64285681961396
H           10.57781738098786        1.23159864674547       -4.68735275602845
H           11.06314033180558        1.32757456808565       -3.01501956549789
H           11.94430991051342        3.27419904598874       -4.35137032019500
H           10.90049781456193        3.79655858098149       -3.04910378590918
H           10.20534028852774        3.64570300888617       -6.02201606887256
H           10.20310976919354        5.05789081515697       -4.98651055063594
H            6.55925687460162        4.39106205484504       -4.96224460464737
H            8.81519581311211        5.85316941685047       -6.43387262491694
H            9.11036452606283        8.14224125019753       -7.14038182738178
H            8.39445558501774        8.78924840340319       -8.61691224473527
H            8.83466284552797        7.08305961921694       -8.53563827275174
H            6.61076662111139        9.88229206720368       -9.09288855544036
H            4.35717398990587       10.83513528704169       -9.35273964453671
H            2.44219186596302        9.82764768532774       -8.19872718478826
H            2.75512333599438        7.84334297727187       -6.76204479310769
H            4.87366849323693        5.13762057030661       -7.89355277466952
H            3.57741164343621        5.33833140246030       -6.71808337869192
H            4.99860109615561        4.38884256701402       -6.30624357448118
H            5.53383442095536        7.69885034752930       -4.48155252247521
H            5.41076712486336        5.96498824819207       -4.20688042735926
H            3.97928089169831        6.88684940939274       -4.64724302739175
