39
 energy: -7.920855729113 gnorm: 0.000661177448 xtb: 6.5.0 (97a52f5)
C            0.86417374904186       -0.06464650645709       -0.06732797715857
C            2.33830153317800       -0.24312253172608       -0.37365048252894
N            3.03159916085630        1.02229479935518       -0.60331216135391
C            4.38152207497507        1.16717528498372       -0.89806641699168
C            5.20223554732219        0.05534372912936       -1.02715838418091
C            6.55730697831201        0.16404781623386       -1.31538705180523
O            7.31695463571262       -0.99059078111570       -1.33509548622063
C            8.68953827274297       -0.90083329470954       -1.44168299102930
O            9.36676987787108       -1.91300163085253       -1.34769039392193
C            9.31405220583374        0.40208959636044       -1.69698677653375
C           10.77448961241020        0.54066088789950       -1.73372463997939
O           11.50043112224646       -0.40895268208103       -1.48199999698944
O           11.33746748826995        1.76689141852011       -2.02271123840648
C           10.53026803224148        2.81161177267461       -2.42941530938258
C           11.14383535947686        3.98213010760439       -2.88827758313120
C           10.40235529725351        5.01127674735697       -3.40192188005698
C            9.02547125115348        4.88835276767501       -3.49479971105167
C            8.40192144511651        3.75860512299368       -3.02970129498068
C            9.12576400209490        2.72024779281162       -2.42774474668500
C            8.51719727677559        1.51561233507302       -1.89224155661744
C            7.11670456732342        1.43585325275862       -1.54944004285314
C            6.29572404498598        2.55709395283607       -1.34046795955202
C            4.95982354696294        2.45321246297761       -1.03877596386531
C            4.14075979011268        3.67872092518229       -0.83712324349907
H            0.36387675465490       -1.02022086079416        0.10150936665083
H            0.35146748980695        0.43675602176199       -0.88923960719499
H            0.72090889379443        0.54499744189617        0.82581581435272
H            2.47221127154487       -0.86764906385205       -1.26451079280563
H            2.84325780579804       -0.76066081547587        0.45049450833285
H            2.43625967240903        1.83274007891129       -0.45072277067998
H            4.80002296758681       -0.92807017289295       -0.87833749769314
H           12.21741311916780        4.04181307291562       -2.85040810628597
H           10.88988350382065        5.90256937722697       -3.76182404813030
H            8.44610731693935        5.67844576168606       -3.94394413200767
H            7.34634713557589        3.64077352165649       -3.19772006369273
H            6.73697982652837        3.53603554114625       -1.34351466490401
H            4.72059818618976        4.58108333834593       -1.03303010674841
H            3.77604968905848        3.73655295139150        0.18865025458963
H            3.28383949485235        3.68875046059425       -1.51095486500821
