64
 energy: -10.823699060728 gnorm: 0.000595955504 xtb: 6.5.0 (97a52f5)
C            0.89827234116438        0.51889439887523        0.11098283889451
C            2.24728437667915       -0.07427416945909       -0.24627530533649
N            3.07635250537371        0.83234819235928       -1.04174338067529
C            4.44015692434887        0.80164122712370       -1.28907959894660
C            5.03160738702753        1.97659835155979       -1.74107595310268
C            6.39587879013019        2.09315423436310       -1.98714140826076
O            6.89575647328435        3.30608017470340       -2.39878468168624
C            8.25074125237160        3.40167020502235       -2.61192914193562
C            8.78289081472055        4.62576518561950       -3.00676247760080
C           10.14000723343240        4.80715745369122       -3.23602118630482
N           10.63161701462732        6.04293399601361       -3.60305345722423
C            9.84951424744420        7.26786764119345       -3.75138176579518
C           10.69613786088243        8.47385669582870       -4.10504232327571
C           11.02022793037106        3.69324614296101       -3.07800174188806
C           12.48030569652400        3.84347840064069       -3.31453817708848
C           10.50642355719152        2.48968752707709       -2.69320648460699
C            9.12920965974279        2.29852098689798       -2.43735314987379
C            8.61129899958800        1.05698630231118       -2.00878970145227
C            9.50981969148915       -0.09581339705770       -1.75218393984032
C            9.40921537524878       -1.24963695110376       -2.53469976712896
C           10.24723112269453       -2.31949978071048       -2.33581094860582
C           11.21450245342046       -2.26724982077220       -1.35221661956836
C           11.33382018704981       -1.14519476348397       -0.56508369688079
C           10.49236052581353       -0.05996593683121       -0.73906307800356
C           10.65572666951726        1.12542685632933        0.14624016331090
O           11.76619607501751        1.44193988810055        0.52958411166135
O            9.51372867419617        1.80420952090060        0.47491934696025
C            9.81211189633932        2.96416906277415        1.21706072460600
C            8.59773437548727        3.85481654776303        1.38043947408469
C            7.22149730916171        0.95645839356509       -1.78483509937725
C            6.61474013205884       -0.23866689979310       -1.33762025608842
C            5.27345920554172       -0.34938367461188       -1.10434496696665
C            4.72925887018704       -1.67364491244312       -0.70315908360195
H            0.29033748986474       -0.17294537728370        0.69692010552716
H            0.33303689965097        0.77590645382969       -0.78559443852863
H            1.01403598529150        1.43219376936548        0.69572933353400
H            2.11085659420416       -1.00241210442866       -0.81058506427650
H            2.79857534070374       -0.32875682695977        0.66511326017600
H            2.58136172173711        1.70230870974487       -1.22147687690681
H            4.42217321327411        2.84735704730647       -1.88993721978671
H            8.10561044971187        5.44852065175220       -3.12740834004026
H           11.62567045067449        6.19090753553222       -3.75924676899958
H            9.30905305835759        7.43972363227220       -2.81331849809913
H            9.08878266049680        7.09210864506443       -4.52070899338421
H           11.44715469733489        8.66310442953963       -3.33720966902039
H           10.09471225971064        9.37873892790140       -4.20926726343135
H           11.22495702658145        8.31794621099298       -5.04599499255879
H           12.67656797479464        4.19373877181618       -4.32801338740523
H           13.00197326131213        2.89447173374676       -3.18809732514352
H           12.91605200896704        4.55392216730063       -2.61177832558582
H           11.17196347361284        1.65588449196404       -2.56766516985179
H            8.66835310685861       -1.28305888974543       -3.31476361475490
H           10.15428008423045       -3.19818639096122       -2.95248689474166
H           11.87595447319760       -3.10452127029486       -1.20142414849453
H           12.08756466942258       -1.09452921769001        0.20214433350832
H           10.62363629602726        3.48742167412463        0.69242116148820
H           10.21289103188300        2.63690137987385        2.18593524021307
H            8.20563373657071        4.14783222705253        0.40614444698931
H            8.82413114348816        4.76250689967698        1.94187116245023
H            7.80010390603187        3.32377190858613        1.89989671975971
H            7.23963173088246       -1.09787551317746       -1.17951433983453
H            5.48156463922249       -2.45574220447205       -0.81134210642763
H            3.88759982241014       -1.95766617670773       -1.33344959494531
H            4.41469516536938       -1.67360037513943        0.33976800016771
