40
 energy: -7.792498099811 gnorm: 0.000785858830 xtb: 6.5.0 (97a52f5)
C            0.93007733749601       -0.07444097786690        0.00423727893622
C            2.44318043140719       -0.05286963390360        0.04358751638739
N            2.98087278215551       -0.11496190330960        1.40721248083071
C            4.35643703051275       -0.09692329173610        1.69322202469677
C            4.86653133345721       -1.12077984582285        2.50306583610064
C            6.20815389570438       -1.27497328287774        2.69064631837601
C            7.12981744912208       -0.42281980795755        2.07347335146294
N            8.48785346931346       -0.64628680837314        2.24811589979221
C            9.10589121191773       -1.71869708920320        3.02142765433939
C           10.61981474953999       -1.65813297378267        3.01027092621621
C            6.65364095017639        0.65125658226080        1.28566019973801
C            5.25854649569736        0.84713904211652        1.14082989831814
C            4.75541565362919        2.07211314367840        0.50018789887013
O            3.60158903524046        2.45293569348922        0.62072751500093
C            5.69253474958722        2.88035493466678       -0.29286975206176
C            5.22251490748317        3.91979040015502       -1.08537766894641
C            6.09025634672782        4.69170735112853       -1.82131256007263
C            7.44940679683051        4.43951955190818       -1.77181254298051
C            7.93023202205179        3.41949880611711       -0.98491704139810
C            7.06669166305281        2.62832426463216       -0.23800920989444
C            7.60064939366578        1.55830878616725        0.61903555549301
O            8.81097704587451        1.45400979980422        0.73836987383643
H            0.54542176490238       -0.00665056570549       -1.01527889322223
H            0.51692076354249        0.76093038003929        0.57091259245862
H            0.53653999185043       -0.99130727595962        0.44483198946770
H            2.82290874901655        0.85847500763257       -0.42850149075956
H            2.86515742388864       -0.88560215435553       -0.53228052694406
H            2.40841788133075       -0.74944400143190        1.96067806212949
H            4.17868525765399       -1.81560403631610        2.95229561515781
H            6.56965844098640       -2.08016223598057        3.30464670051756
H            9.15974320833976       -0.02680940609837        1.79949955667935
H            8.75494768642287       -2.67526195198856        2.61665521144280
H            8.72615625354996       -1.66019869339292        4.04821057853231
H           11.00704621476222       -1.72885090862412        1.99305981369743
H           11.06692547368959       -2.46718280896658        3.59107278354128
H           10.97657870138631       -0.71566871138314        3.42759204741690
H            4.16348385811119        4.11102755187255       -1.10975931252889
H            5.71210713799013        5.49351954304456       -2.43380919087096
H            8.13091299793600        5.04499233741342       -2.34628925757979
H            8.98671344399662        3.22027518891016       -0.93127773217696
