32
 energy: -6.541978216692 gnorm: 0.000766704544 xtb: 6.5.0 (97a52f5)
C            0.89863388312745        0.02256623042795        0.02643969413547
C            2.41171791189024        0.02787954832589       -0.03522781894997
N            3.00114306937155       -1.22977188067622        0.43800473478059
C            4.38011932242822       -1.45024802877422        0.56312911233155
C            4.91103713900088       -2.60094420386981       -0.03655367134977
C            6.26264741929663       -2.82097532029116       -0.08980872715110
C            7.12923610221503       -1.89827329697617        0.45432742282031
C            6.65445874817552       -0.76720132233302        1.09589375472844
C            5.26852490020049       -0.54386659509032        1.20163380825173
C            4.78493049100620        0.55610107898359        2.05488384696034
O            3.62506592490763        0.64646118584248        2.41362147048386
C            5.75688461786500        1.56682568165270        2.51936032492620
C            5.31156377738882        2.70554449088744        3.17525979074786
C            6.20113241165506        3.65023656229911        3.63276583104482
C            7.55774248851153        3.46930643416569        3.44403249725050
C            8.01651698877336        2.34312784149316        2.80094817973479
C            7.13127023980124        1.38283165036645        2.33349464171433
C            7.63642090092135        0.17589617072013        1.66324538233641
O            8.83133661317602       -0.03336165196627        1.57128828632733
H            0.47176100030629        0.97259244728334       -0.29942809456345
H            0.55511232484046       -0.16421530060974        1.04432717582402
H            0.48036996038528       -0.76127793505730       -0.60583330274719
H            2.81367011286354        0.84263025581184        0.57447720681771
H            2.76458836414087        0.21411125224985       -1.05677667850769
H            2.44750327664168       -2.00661677213891        0.08219529580843
H            4.23665906492893       -3.30346158044069       -0.49378067603184
H            6.64845011658161       -3.70445532069194       -0.57112220910066
H            8.19366031169849       -2.04977960832933        0.40053199835639
H            4.25301070804871        2.83212399716435        3.32440245125597
H            5.84059581401678        4.52944760053727        4.14072003872689
H            8.25557100899066        4.20762247095663        3.80305107384944
H            9.07119498684456        2.18664391807736        2.65254715918833
