48
 energy: -9.165581843647 gnorm: 0.000809730290 xtb: 6.5.0 (97a52f5)
C            1.39663523035072        0.28364202524878       -0.44518444367410
C            2.87691447984045        0.34834942088695       -0.13187231613586
O            3.21499101259712        1.52695286271242        0.56098103164451
C            4.53319845224835        1.51241608782344        0.93187390930949
O            5.29632044230495        0.60607318315897        0.64498259754485
C            5.00341885992990        2.67215809000498        1.69490832867552
C            4.15245026339800        3.40763562641773        2.49691912025230
C            2.82856244602638        3.16905601405115        3.10466352580855
O            1.93438548853780        2.34849636437677        3.08485121152255
C            3.00118715401617        4.41128152521376        3.87151311917062
O            2.23510780092254        5.04178851459762        4.77945315785821
C            4.25109369264281        4.63185620570627        3.25815549732124
C            5.23036959408714        5.67183394644523        3.44059850706134
C            6.10576279515719        6.11509648279202        2.49493277871541
N            6.03734465708827        5.94357681137841        1.10370493383667
C            4.84175412625442        5.58203323539459        0.34875925897601
C            7.19068429251182        6.44563588227475        0.45825617087990
C            7.54178645572801        6.42973745087177       -0.88472182434061
C            8.74121509309248        6.99276615066634       -1.26274448442736
C            9.58247960240467        7.56514564990152       -0.32141152821275
C            9.23696741123419        7.58191291856577        1.01831856078175
C            8.03935994816585        7.01987224495509        1.40596217749673
C            7.39779720717940        6.88894309025514        2.78558780274481
C            8.30145746770161        6.07164038958284        3.72020599897297
C            7.08774110343561        8.27312500838380        3.37110331671268
N            6.41499522878185        3.02288298912105        1.62477166613748
O            6.97114601938851        3.05451082528417        0.51336455169762
O            7.02107318134915        3.28489081194766        2.67835864261536
H            1.12658398597403       -0.63041150186270       -0.97655131659297
H            1.09791054108479        1.13460383490425       -1.05763243622134
H            0.81175484709615        0.32927096603259        0.47394744456764
H            3.48836417057932        0.32068100697766       -1.04461743322276
H            3.19279136867167       -0.49790841510260        0.49449596462599
H            1.41771225848751        4.53213207576078        4.92271298479440
H            5.31265747316368        6.07960931760344        4.43405422599964
H            3.96450962472995        5.59446866586578        0.99048793732591
H            4.96295429426985        4.58849160220450       -0.07725085021329
H            4.68298852368703        6.29502027813694       -0.45732179349860
H            6.88992066949526        5.96995387378791       -1.60568380131357
H            9.02964094149087        6.98505274851282       -2.30112847073634
H           10.51710183622827        7.99979567132412       -0.63559790620599
H            9.88725653865901        8.02373498740231        1.75240402016442
H            8.47866668850095        5.08178024056086        3.29962262749657
H            7.83851405065341        5.94186746516686        4.69715462369965
H            9.26362164029289        6.56124710837170        3.86210756170973
H            6.44002168549119        8.83473703240973        2.69924468687352
H            8.00194163597287        8.84665245975931        3.51674178521820
H            6.58523771965400        8.18858077393406        4.33335887591948
