49
 energy: -10.256179575876 gnorm: 0.000983699475 xtb: 6.5.0 (97a52f5)
C            1.31136059998900        1.72438000524632        0.44612844016160
C            2.35033217959393        0.62227581275904        0.41283697386283
O            2.99420692359299        0.45763818081510        1.65703155570577
C            3.89935099756790       -0.57052761209250        1.59859207718288
O            4.11015734828919       -1.23210653779866        0.59756551972524
C            4.64544415300087       -0.85244730256829        2.85983478817545
C            3.89406242288672       -1.09611122226914        4.01146930970682
N            3.27900629888807       -1.30371567359598        4.97522702972558
C            5.99386910065709       -0.93243307088258        2.92528384302446
C            6.95717390117786       -0.64672939998993        1.87626515485602
C            6.64853601372249        0.18296726768656        0.77319330777390
C            7.56596592124610        0.47147033136695       -0.20002679388673
C            8.85119941219997       -0.06140969562393       -0.09293242517728
C            9.18361035386675       -0.88322620198484        0.99854532924947
C            8.24348599476071       -1.16726682104598        1.98178351958325
C           10.55784489142050       -1.29228412905920        0.82302133171636
C           11.40370015236188       -2.09743604195800        1.58537754530320
C           12.69054979041477       -2.30035051425686        1.14797539605763
C           13.14864704523535       -1.71348391406877       -0.03403964772089
C           12.32643722321904       -0.91994523815574       -0.79579196826981
C           11.01635025301668       -0.70867531407789       -0.36958849181421
N            9.96996722645869        0.05017892172216       -0.93629784277225
C           10.02741041081703        0.77262786926676       -2.17841603037048
C            9.66228971218860        2.11139340394766       -2.23623033831786
C            9.70936856204339        2.79914313506187       -3.42812537081842
C           10.12155156898915        2.17044259206584       -4.59550260719299
C           10.17129386918483        2.90395143341541       -5.89045999449407
C           10.48602311920091        0.83295784181915       -4.53505336527583
C           10.44094087202111        0.14239412910478       -3.34489731071978
H            0.81851815148893        1.85526773870604       -0.51870659974097
H            1.76845630208276        2.67442304151333        0.72396549915679
H            0.54483012719891        1.50686416209319        1.19032845858607
H            3.12863376338393        0.82702934619134       -0.33499658352892
H            1.90085838407691       -0.34465353815847        0.14733719450336
H            6.41005426798306       -1.23087382241058        3.87303789756169
H            5.65974162226056        0.59913940280587        0.70429192946481
H            7.31341422106606        1.09085962820887       -1.04171835548371
H            8.50968588079431       -1.79537970560319        2.81164354589683
H           11.04422395046597       -2.54380430439133        2.49555863732508
H           13.35719375870871       -2.91928111796369        1.72531927725943
H           14.16375129459507       -1.88605345749253       -0.35176534607453
H           12.67476866246549       -0.45869006260361       -1.70213307212257
H            9.35250891195781        2.60525822519657       -1.33201639984059
H            9.42524046402782        3.83685516915841       -3.46136348956538
H            9.87529944662713        3.94629245120923       -5.76946010548756
H            9.49965790597140        2.44885492604631       -6.61906861881838
H           11.17966477232999        2.88977263383033       -6.30525265267699
H           10.80409828482541        0.33606679490154       -5.43549170008771
H           10.71202350966402       -0.89803974610235       -3.30576845129583
