50
 energy: -10.394380767128 gnorm: 0.000879199377 xtb: 6.5.0 (97a52f5)
C            0.97132608446744       -1.37346647003338       -0.61699652700528
C            2.15525484030439       -0.43064159777347       -0.69208201379715
O            2.88218357886654       -0.58226918712560       -1.89069844363236
C            3.90729645256745        0.32610047152812       -1.94929531408290
O            4.14580924243555        1.13195632830495       -1.06767831147663
C            4.74050107088406        0.28818077448576       -3.18332201904368
C            4.07244755723509        0.21556703803797       -4.40659732817092
N            3.52462452581620        0.15877782713198       -5.42960461859442
C            6.09089764679866        0.38203988667429       -3.18371699749692
C            6.99215307931536        0.38330345736227       -2.04464033072825
C            6.64115781498540       -0.19826078709648       -0.80317251590346
C            7.50668980680146       -0.23134784666152        0.25552779497054
C            8.78028081097372        0.31899842955447        0.10135146516573
C            9.15348935512097        0.89945948548877       -1.12431934040202
C            8.26665601246565        0.92227008661183       -2.19409883342666
C           10.50366178755212        1.38758217512171       -0.97206620266865
C           11.37178529116206        2.04328272317399       -1.84509951000143
C           12.62440490869670        2.38429960617271       -1.39527056145186
C           13.02760397162280        2.08223447560061       -0.09197795948408
C           12.18348055764865        1.43940104845610        0.77934721106511
C           10.90715170454604        1.09050408365429        0.34047495180407
N            9.85094608938126        0.43210275931701        1.00189556798992
C            9.86059833250622       -0.01109972409523        2.37098391999529
C            9.57686490524630       -1.33265885012573        2.68985473348468
C            9.58339105282053       -1.75095240631805        3.99734598941865
C            9.87451493334952       -0.86611524294082        5.03890245048330
O            9.85954193169875       -1.37614559263537        6.34405112637458
C           10.15644961450020       -0.43854719354647        7.35223668098765
C           10.15955674697870        0.46147890704666        4.70800684676738
C           10.15154168372949        0.87708713947643        3.39878223122420
H            0.40859166248961       -1.25573347088115        0.31057964160261
H            1.30177618427347       -2.41031573164276       -0.68263549834849
H            0.29024045084796       -1.19981681189105       -1.45033043718968
H            2.85514295591275       -0.59606173565770        0.13837863261980
H            1.83586981922773        0.61939904755885       -0.63623713910634
H            6.56317197665048        0.44732196951369       -4.15010295317715
H            5.66019393289235       -0.62555352186834       -0.69594546562456
H            7.22372098862514       -0.66595862691348        1.19731736540720
H            8.56424559164561        1.36437013428531       -3.12682220108862
H           11.05496218444040        2.27092911533083       -2.84741986041947
H           13.30769419877325        2.88996028328661       -2.05727757434475
H           14.01700125785148        2.35855077338825        0.23347922879232
H           12.48829386364249        1.19815045522933        1.78167989239078
H            9.36244528822269       -2.02506448415581        1.89475154386604
H            9.36458919341132       -2.77428580743669        4.24562530435878
H           10.11242865304162       -0.94393017137225        8.31799732481180
H            9.41957645946033        0.36570486637448        7.34031510727447
H           11.16218772246139       -0.04250948894632        7.20474070153975
H           10.38695443060572        1.16878999909723        5.48421661955092
H           10.36166179505939        1.90293140183723        3.15154562469978
