43
 energy: -9.027101592726 gnorm: 0.000866774862 xtb: 6.5.0 (97a52f5)
C            1.17911929902000       -0.68241059177807       -2.20926024556037
C            2.25923867348661       -0.36202769622090       -1.19668601444329
O            2.87431603561232        0.88088905713845       -1.45078558420866
C            3.79893701316603        1.17119724862497       -0.48031946929369
O            4.03756466012739        0.43070040913394        0.45557010576936
C            4.49194218475044        2.48242677902504       -0.63213109538107
C            3.70174437864891        3.57667585960472       -0.99055482100165
N            3.05441528922244        4.49522900318409       -1.28485916142088
C            5.82189734391850        2.68991720617069       -0.49670328658252
C            6.86649642000971        1.73743630403761       -0.20095042431104
C            6.75692196383435        0.40554787898562        0.08577622992572
N            8.04304787787859       -0.07425011137609        0.19245465642439
C            8.40806685140389       -1.43765135644714        0.48888266275927
C            9.64757068088381       -1.70508501845396        1.04688648260420
C           10.02188234888033       -2.99929038761282        1.33368204721542
C            9.15958430437709       -4.04233621065343        1.06194822753511
C            7.92425206721724       -3.78728693431423        0.50103846713247
C            7.54969054276897       -2.49264085514557        0.21531353931808
N            8.95853961042229        0.87843508231862       -0.00252933304762
C            8.28434227906304        1.99248923991533       -0.22697813379314
C            8.93680481748453        3.28822690225434       -0.47821959295784
C           10.08274486331329        3.34406903957403       -1.26791999327188
C           10.71625777333867        4.54270942062686       -1.50600663477989
C           10.22192969102024        5.70680993768685       -0.95316233919601
C            9.09719122497314        5.66762237128359       -0.15393782205711
C            8.46074313540570        4.47075966667654        0.08625467735883
H            0.70108912679384       -1.64361380015493       -2.01293736737842
H            1.59505488750718       -0.71039934713296       -3.21663202729224
H            0.40675039820389        0.08710609029329       -2.20198362736013
H            3.05091273347446       -1.12366386964434       -1.19712828360295
H            1.85406117118015       -0.32207595986073       -0.17586515773813
H            6.15724461733419        3.69358289465554       -0.69046622458980
H            5.85327058405763       -0.15218885345612        0.23494355097380
H           10.31135978916609       -0.88340290539123        1.25114874317035
H           10.98724469895771       -3.19723171506282        1.76974391857025
H            9.45126394207711       -5.05509417608862        1.28675032902652
H            7.25240881051699       -4.60177429771040        0.28512392365625
H            6.59178808004039       -2.29064109971999       -0.23038460107657
H           10.46429897719658        2.43189003682677       -1.69307491303179
H           11.59893789602235        4.57244177116947       -2.12375665142276
H           10.71872335337892        6.64470854097834       -1.13977430439993
H            8.71915452562471        6.57527067795786        0.28756380625231
H            7.60957507826640        4.43539376810221        0.74368574149832
