52
 energy: -11.216509616612 gnorm: 0.000591533765 xtb: 6.5.0 (97a52f5)
C            1.10655934583272       -0.06791693025308        0.26088543856457
C            0.28703866479264        0.94460583593489       -0.09224778766803
C           -1.16447153208917        0.90933624384080       -0.08541926521509
N           -1.78586571736168        1.63929165103397       -1.00054845822593
C           -3.10788874517387        1.51089715043994       -1.04852505150783
N           -3.91415713160215        0.77846432756845       -0.33863195099677
C           -3.31244718269802        0.07144046917761        0.64649841625968
C           -4.09141632685958       -0.71533058119027        1.51849098285088
C           -3.52043775945895       -1.38665927815166        2.56090087537538
C           -2.14902233859184       -1.28538489724800        2.78998219813980
C           -1.36629169617821       -0.53904156213026        1.95717924777393
C           -1.91855351754699        0.12696705830392        0.84266543196983
C            2.55214931385483       -0.03036728013703        0.22662363271651
C            3.27963289474767       -1.14652994199835        0.65525075889257
C            4.65122385143061       -1.14876351472269        0.63571891376336
C            5.36358455584781       -0.03782531589937        0.18353830899711
N            6.79231070076408       -0.04240310581098        0.15912453373781
C            7.51255822537164       -1.27236912604591       -0.02265545800775
C            8.68269527268873       -1.52103929745263        0.69071193222136
C            9.37575479303053       -2.69754498410860        0.51597762471579
C            8.91498813923199       -3.64717407188560       -0.37496792919055
C            7.75848946272185       -3.41396437031432       -1.09334127560473
C            7.06392365221600       -2.23797220101018       -0.92078804027129
C            7.52784452523610        1.18129715243269        0.31963480841432
C            8.67918901846811        1.41909150823968       -0.42726861330218
C            9.38704482798671        2.58980353105994       -0.27437803787633
C            8.96009845468911        3.54430145214624        0.62813399984050
C            7.82279141052881        3.32174582515131        1.37976608997773
C            7.11353916982454        2.15150516431649        1.22919887840540
C            4.64227823614746        1.07732332997775       -0.24397674130394
C            3.27016248726377        1.08459810954003       -0.22166685605299
H            0.66364031180785       -1.00686987659015        0.53961380371273
H            0.72414903922227        1.83525733477328       -0.50486923013913
H           -3.58855608372898        2.09962831104682       -1.81785329540997
H           -5.15270227997799       -0.76745792631191        1.35020078270506
H           -4.13098739060421       -1.98233802458379        3.21952029015720
H           -1.70980274115205       -1.79160723124721        3.63406132118421
H           -0.32334938264327       -0.41682805443899        2.18547610991549
H            2.74651161411312       -2.01190328492281        1.00998566695118
H            5.19657540867693       -2.00829811801591        0.98369824560553
H            9.03288954458233       -0.78005399984372        1.38779485146769
H           10.27880206852257       -2.87795926208046        1.07584611675320
H            9.45773648915021       -4.56833508059927       -0.51027350714478
H            7.40013180279540       -4.15305737693906       -1.79107347356553
H            6.16907386510012       -2.04574920478083       -1.48640930531498
H            9.00295933912362        0.67430821181710       -1.13302342381994
H           10.27507479054291        2.76198958814843       -0.86026510793464
H            9.51432793738298        4.46096055890158        0.74643140380305
H            7.49082284860078        4.06473835933303        2.08633705839937
H            6.23380912602797        1.96761739161500        1.82074278401599
H            5.18182364530421        1.93422980996006       -0.60734449907956
H            2.74338499204552        1.95888552394849       -0.55871319965321
