88
 energy: -17.378182398445 gnorm: 0.000640059016 xtb: 6.5.0 (97a52f5)
C           -0.78151992594642        1.26781134959302        5.17245636158056
C            0.45330405255679        2.12949191026039        5.34194694661252
O            1.52411730664843        1.69712057205966        4.53051250397927
C            2.61798460974655        2.50375887623686        4.70641838778244
O            2.64220659280489        3.46597515614098        5.45798787167433
C            3.81615288376977        2.14541517670830        3.92526506708423
C            3.74762398650994        0.95635047035350        3.04423582471565
C            4.91736541507815        2.92083357809891        4.03477962093059
C            6.20436105122236        2.67879922393999        3.40040250472475
C            6.94862322169776        3.62636748767068        2.64868013381253
C            6.66117867509789        5.04353240537186        2.42248295886263
C            6.95189718952853        5.62823832647114        1.18799160548801
C            6.70552190845401        6.96056295685534        0.95492073836593
C            6.17302025218529        7.76873642794810        1.94985665668239
C            5.88528810245101        9.20653851178192        1.69059512666318
C            5.88389926282278        7.19698804610742        3.18175086147751
C            6.12652717965522        5.86357069135925        3.41894629877013
C            8.04475986667972        2.93264421211178        2.06313788672832
N            8.99557984265365        3.49841641974292        1.31905221184041
C            9.95374935526057        2.65857918183741        0.93668482236847
C           11.07951999404851        3.00478038352066        0.10851344234201
C           11.36790202313177        4.34630188610684       -0.39344249436730
C           10.56332915704592        5.42996632638576       -0.03859603711098
C           10.81403216792099        6.69767191237079       -0.50697785702960
C           11.88791097092329        6.94167253286528       -1.35068583637979
C           12.14254750682411        8.30804744700763       -1.88476630277470
C           12.69173773091542        5.87199649313724       -1.71878876538924
C           12.43950681247489        4.60433015081367       -1.24767979399589
C           11.79982382300816        1.83173389489823       -0.11436163401288
Br          13.39924804930753        1.70639903773845       -1.11426699474463
C           11.15496493346672        0.76521834706975        0.54959337003425
C           11.53104889550215       -0.64591666783665        0.48663811225170
C           12.45578078340715       -1.10880503150234       -0.44972834160383
C           12.79047274389838       -2.44038864056318       -0.53425414519602
C           12.22114596384057       -3.37188596976469        0.32110939912971
C           12.56130037646404       -4.81726413345450        0.21276404999194
C           11.29537152414628       -2.92697144067384        1.25292779984271
C           10.96273769904465       -1.59519004819015        1.33413865565902
N           10.06838107328602        1.31542657268486        1.18594841668090
B            9.00493222116132        0.61218636381911        2.04060223105017
F            9.59310859453861        0.09534053568102        3.18534588979414
F            8.40546361765134       -0.36024025278594        1.25300000728581
N            7.94682045493269        1.62721564423633        2.48322756259019
C            6.89126759918239        1.42551269774209        3.31855209208198
C            6.60926866555702        0.22684937168263        4.10645085843027
C            5.99959740018505        0.31916396329317        5.35941820877215
C            5.72214267551800       -0.80644416687117        6.09963061278507
C            6.04233094506050       -2.06949860092151        5.62222317440899
C            5.76133736389624       -3.28429508189770        6.43578331461805
C            6.67231800066793       -2.16871115173183        4.38983202787609
C            6.94971222183839       -1.04426865357514        3.64905858900848
H           -1.60652996369850        1.60202437260680        5.80388121381013
H           -0.56339377568046        0.22968902048314        5.42421857733505
H           -1.12188668190770        1.28277645366687        4.13686730951942
H            0.80772782352749        2.12159799317614        6.38168248076013
H            0.24931150710190        3.17749315283413        5.08346054617494
H            2.75032290209266        0.85478383985157        2.61521135589865
H            3.96077168568705        0.04500085365197        3.60267577624289
H            4.45921855434236        1.02919694177058        2.22143385154552
H            4.81144534271185        3.80782915788230        4.63403261947615
H            7.36708155679867        5.01128024445506        0.41092050815790
H            6.92604326052198        7.38958735971328       -0.00750335686982
H            6.57896930895160        9.62056058174763        0.95816582219788
H            5.97700263911404        9.79672248131299        2.60291386575426
H            4.87298075933852        9.33486820372126        1.30632434418462
H            5.46924497517437        7.81499855144327        3.95969702800525
H            5.94666634451712        5.45585097240592        4.39679076966581
H            9.72693376790449        5.26015720347050        0.61067901735155
H           10.17284322571599        7.51457413028142       -0.22325001116868
H           11.84059198658343        9.07258609491953       -1.16823897815562
H           11.58540270935855        8.47189336238139       -2.80770782449967
H           13.20135975671988        8.45576231642538       -2.09954009841196
H           13.52035204372564        6.04433765154041       -2.38419018834884
H           13.07962533958907        3.78806559730396       -1.54527545764116
H           12.91458592274394       -0.40281218340412       -1.12397350585434
H           13.50204955112947       -2.77157753369837       -1.27116312778880
H           13.58011775674034       -4.95553925360413       -0.15059766402691
H           11.88559917618345       -5.32249786559503       -0.47801668172080
H           12.48573487158458       -5.31251585867857        1.18133033655273
H           10.83393194597995       -3.63926141966073        1.91538286083532
H           10.24861251894230       -1.27204522305102        2.06468762801972
H            5.75052002303052        1.29017790808043        5.74934845723157
H            5.25095596671826       -0.71450099046800        7.06323312918136
H            4.86558710169904       -3.15159807523124        7.04347464525362
H            6.59400133596025       -3.50190059485807        7.10541094233827
H            5.60302711552173       -4.15588942457453        5.79985785063648
H            6.94871404537424       -3.14062806749624        4.01834007112768
H            7.44734478242731       -1.13284265649541        2.70302188508949
