66
 energy: -12.431475668113 gnorm: 0.000890263674 xtb: 6.5.0 (97a52f5)
C            0.73575423695472        0.26035751940391        0.05404336032169
C            2.24909037140892        0.31645036692761        0.09792639930241
O            2.72340151547717        1.56298716229272        0.55619433733191
C            4.09162401265332        1.57309743633299        0.58999164501272
O            4.79059150518324        0.62425204435149        0.27096863618152
C            4.70177326254649        2.81621355179099        1.03945431238984
C            6.03319254163531        2.96624187187589        1.11326355393969
C            6.68982451485125        4.15440165886849        1.53490282598916
N            8.03711400763719        4.31760711068474        1.60576413079125
C            8.38161485529865        5.57933131735330        2.04274859642375
C            9.70446808993520        6.02377846325222        2.20329004373964
C           10.01899733180703        7.39531329383837        2.67257870639515
C            9.85672513336572        7.73986517741369        4.02820769777680
C            9.35995862247030        6.74478958859144        5.01942040880826
C           10.14668755535649        9.02711213760146        4.43947511935165
C           10.61179715365405        9.98701443233585        3.55474904581214
C           10.94509855138728       11.36289308718347        4.01678996288498
C           10.78211615595810        9.63544710984114        2.22589285988459
C           10.48423664828630        8.36660945688604        1.76570743056068
C           10.67732447207224        8.03508106225485        0.32613575740902
C           10.71186090841991        5.09542649718759        1.89206891833692
C           12.13116668615885        5.21445411034009        1.96039460483456
C           12.67794834134017        4.02583064078114        1.55584051742106
C           11.62183152357314        3.12583524200613        1.22517844688871
C           11.69300874440891        1.78301319399061        0.76408999926338
C           12.83315404609140        1.11206545873993        0.53910804238352
C           12.83329930890710       -0.26620854322867        0.07010336800286
O           11.77875988949885       -0.84857494876634       -0.12857634174259
O           14.06653508528108       -0.82873956237827       -0.11954906380097
C           13.93815346816406       -2.16167327234503       -0.56121174568281
C           15.28195409245443       -2.81807132379500       -0.80371274850332
N           10.47033350061094        3.81344211094509        1.44533900373610
B            9.06378258725796        3.24066462529797        1.23473164645544
F            8.88986812421439        2.14057957826810        2.05966314093061
F            8.90467690914501        2.89865023895068       -0.09861863624672
C            7.14716339020241        6.25977227776529        2.25775120440841
C            6.12818894016782        5.39723936893117        1.95300721639461
H            0.36920051129303       -0.70323609671117       -0.30341390663512
H            0.34236866644889        1.03636191243454       -0.60270702270112
H            0.31685734201773        0.43475579779624        1.04519999330676
H            2.68689603124219        0.14730707311265       -0.89559127253270
H            2.66133302691376       -0.45416022190049        0.76381306376538
H            4.04860146671016        3.62337012639834        1.31038997625375
H            6.65661343452410        2.13568067282298        0.83202064050956
H            9.56915179485897        5.72510749816705        4.69616092269362
H            8.28289090151007        6.84015855298542        5.15730374321717
H            9.83805429483439        6.88593493135981        5.98892186830208
H           10.01306452902586        9.28804488060819        5.47407057031570
H           10.61179490841781       11.52986425194202        5.04126445693443
H           10.46532150588591       12.11129148539561        3.38546848413595
H           12.02180151650937       11.53136486626931        3.98298252432875
H           11.15182512657669       10.37199150438285        1.53502073901445
H           10.58864923654322        8.92372802333272       -0.29872010784832
H            9.93094654806546        7.31764500847837       -0.01502937160511
H           11.66290970856631        7.60165011504609        0.15716148048727
H           12.66942339026784        6.08937775397117        2.28268490464560
H           13.73013275155066        3.80350380810025        1.50231119491814
H           10.76024569194894        1.27711746963052        0.58613642254884
H           13.78273070606131        1.58424108826837        0.70330447527945
H           13.32785449410814       -2.14502148852765       -1.47478011007231
H           13.35853564848021       -2.70142943617907        0.20031924978263
H           15.84552248352259       -2.27036072098701       -1.55894513237435
H           15.18093110268379       -3.85109900226136       -1.14008718252059
H           15.87939902111459       -2.81664707459200        0.10801298527531
H            7.04548804223370        7.27680788627737        2.59593695477307
H            5.07658003425429        5.62026979260183        2.01417705242849
