42
 energy: -7.938944811571 gnorm: 0.000349409434 xtb: 6.5.0 (97a52f5)
C            0.91804656986870        0.20898749687256        0.11976464756506
C            2.31125868076858        0.47689194978772        0.65071707653102
O            2.87814832836577       -0.66299995979100        1.25666277793522
C            4.13228039711379       -0.38660121437495        1.72953261776427
O            4.63619392022454        0.71555040501201        1.62639301566418
N            4.77579051355179       -1.41586081616257        2.37883470802192
C            6.07859913913289       -1.55492450000617        2.56392554593828
O            6.48909545965546       -2.25216790169519        3.68712400914706
C            7.82988510753376       -2.24796088561084        4.03186619631982
C            8.23466710568287       -2.85003290111902        5.21924303240709
C            9.56360910524985       -2.86041134372608        5.62814009197644
N            9.94411585673812       -3.46149378220069        6.83977845549077
C            8.97069288989661       -4.09530381906689        7.74973514697311
C            8.64269895298002       -5.51425163330507        7.33349706779881
C           11.34392415652421       -3.49216284125859        7.30523226164004
C           11.74572294545816       -2.20032391370574        7.98701357640387
C           10.51293886599308       -2.24478164531754        4.78954068540906
C           10.14382704058916       -1.65704509396898        3.61322305693327
C            8.80119450178420       -1.64000398182618        3.20843265943138
C            8.37981934604474       -1.06821947656322        1.98906026230332
C            7.06551052235965       -1.02698826142192        1.64497618561630
C            6.75567446573841       -0.58893398166462        0.35232320015612
N            6.56338672791886       -0.26878507135760       -0.74789318691738
H            0.47928816153438        1.09129599863022       -0.34934759951820
H            0.25632192655623       -0.11076402612767        0.92507404406532
H            0.93736704284182       -0.59321790581062       -0.61826025465696
H            2.30775631846105        1.27804558825771        1.40314381307668
H            2.99373950560186        0.79351601735958       -0.15016529376451
H            7.47637926315813       -3.31113822753275        5.82094506162362
H            8.07435059240945       -3.46961693724008        7.79531592122289
H            9.38270858823183       -4.07508061529976        8.76403724519259
H            8.23772181395909       -5.54391790539524        6.32158009257502
H            7.91310973039567       -5.97943491984329        7.99908143749042
H            9.53874314516858       -6.13604151647685        7.33450535793898
H           11.99177951914282       -3.71830194418842        6.45307846669340
H           11.46197088109829       -4.34166725431305        7.98589370347387
H           11.62846685149141       -1.34797340004979        7.31711565707981
H           12.78384605446678       -2.21984327248576        8.32409060335665
H           11.11681045156649       -2.00843273513797        8.85737588959378
H           11.54786926429876       -2.23424067852332        5.07828006805255
H           10.88363441757514       -1.19575447182002        2.98196690533133
H            9.11762587288672       -0.68692862152186        1.30542579066229
