36
 energy: -6.966628180340 gnorm: 0.000958035844 xtb: 6.5.0 (97a52f5)
C            0.77955068012188       -0.48110288675877       -0.30704563529411
C            2.13497960038264       -0.34731494259067       -0.97117809419434
O            2.80770576956910       -1.58244533351233       -1.04560761131837
C            4.05401421787918       -1.42153094769668       -1.58187269596287
O            4.46641305328581       -0.33742136279642       -1.94515453769101
N            4.80724881461698       -2.56294138281939       -1.72554176873487
C            6.12571981488146       -2.66049913860234       -1.75550869400408
O            6.66192711800946       -3.73630153133054       -2.43678922761049
C            8.03118663132188       -3.81452397134266       -2.60844722853664
C            8.57492496333702       -4.85124479576287       -3.35334393270974
C            9.94812080611502       -4.97680212204977       -3.54893253933648
O           10.37587994411411       -6.05881217286589       -4.31686700266136
C           11.76945203232613       -6.17113951244405       -4.47952055661881
C           10.79746985931393       -4.02612563713278       -2.97047011838245
C           10.30652525544809       -2.97326775215915       -2.21520386443314
O           11.08769909295472       -1.99929506463744       -1.60000635019950
C           12.47849652466751       -2.14272664204588       -1.77003839513318
C            8.89823988774524       -2.86134178391239       -2.03835678553662
C            8.34374589030659       -1.83436462927225       -1.26222961314619
C            6.99875760723523       -1.71661802874674       -1.09603678311077
C            6.55738745037254       -0.75424123341582       -0.18287556620387
N            6.25021011313588        0.02755384805760        0.61961645135273
H            0.25224551709457        0.47284742229517       -0.24962257413125
H            0.88805487030015       -0.87175266791391        0.70530855888226
H            0.15352963064745       -1.18386206463067       -0.85787505622908
H            2.78917012533026        0.34510326843870       -0.42163442288575
H            2.04871232520716        0.03538445311076       -1.99842695088790
H            7.91810141554004       -5.57850250794230       -3.79200862250397
H           11.96607542840887       -7.05791124374601       -5.08457675637235
H           12.24536172350128       -6.29119250960872       -3.50478387142843
H           12.15161367853744       -5.29099337811010       -4.99941367379254
H           11.85524805330857       -4.11740107961798       -3.11247590023493
H           12.72877109271372       -2.07141501092987       -2.82967972066084
H           12.80365067073463       -3.09616635899604       -1.35064957640460
H           12.96879628553212       -1.32962818131149       -1.23187078919202
H            9.00964405600937       -1.14834311720521       -0.76722009469423
