32
 energy: -5.929121218509 gnorm: 0.000569317657 xtb: 6.5.0 (97a52f5)
C            0.61438676451474        0.12115894153188        0.81358900834277
C            2.03459252793965        0.64655063558550        0.77645680872247
O            2.79789012202423        0.17711450249538        1.86331068063046
C            4.07906561377110        0.64592233449197        1.79304460021300
O            4.45073436632606        1.37962691942265        0.89871251808573
N            4.91892691881241        0.27860225956063        2.81851815634441
C            6.23900393928386        0.22143938369890        2.79364865063398
O            6.90194376448185        0.39094080412874        3.99190739473658
C            8.28679320149770        0.49811771208219        4.03389517592044
C            8.79846846725264        0.71127752758211        5.32131064194926
C           10.07314870901759        0.74461304190410        5.74223877659321
C           11.23077996441067        0.53408824233507        5.08973746800259
O           12.34512428467924        0.65762099052608        5.83200370423653
C           13.64398078009587        3.76557774645273       11.29714175274111
C           10.38593493513618        0.58911675090520        2.78529271063206
C            9.04271392048611        0.39961845692111        2.83482335151182
C            8.34926432019435        0.08488329105556        1.64075632665176
C            6.99817177400370       -0.02574113962795        1.59198263985861
C            6.43197425635699       -0.49038603938224        0.39958876502991
N            6.01986194996374       -0.92843124533503       -0.59417226913263
H            0.01828692004008        0.48208470362138       -0.02662753295574
H            0.11927106694140        0.42434268743178        1.73674135263262
H            0.61115401282899       -0.96911798618059        0.79021860987837
H            2.06156593144586        1.74504283604480        0.81262312548385
H            2.55568102043858        0.34083131509414       -0.14203226454164
H            8.04647711499150        0.83575392078338        6.08267320635464
H            8.76199793521869        3.38060978933921       11.02862250094621
H           13.20223162517890        0.48235853535348        5.27599284483397
H           12.32535841148874        0.05153640587749        6.67119707599929
H           13.77770225870404        4.77998472635603       11.29601124579487
H           10.96170670429632        0.51245154284661        1.91002863060056
H            8.91667636810053       -0.09836959040543        0.74440433502570
