76
 energy: -13.913196666567 gnorm: 0.000665170076 xtb: 6.5.0 (97a52f5)
C            1.47251826688471        1.22142066689923        2.98639532303500
C            2.66239381747707        0.85088287155227        2.12520803463227
O            2.98818916662836       -0.51561027564956        2.23084185234712
C            4.05191912209354       -0.81112081992174        1.43257369950415
O            4.62815262665503       -0.00945235104165        0.73301509182271
C            4.48652867456688       -2.25792401386108        1.46009757102574
C            4.08862923726426       -2.96689549189356        0.18553155534490
O            4.80083276846989       -2.92602981332133       -0.79146308302161
O            2.89063226260371       -3.61358781341851        0.24070131317555
C            2.63834414466773       -4.28639116101319       -0.97073954139707
C            1.41246123866395       -5.17221247882489       -0.88305828574652
C            5.94208939328392       -2.40953195131717        1.73943975078326
N            6.49207099941883       -3.41868502282119        2.44094046718088
C            7.88812387236817       -3.33327091890116        2.47398231486118
C            8.71806776133095       -4.27772132272305        3.10747806496844
C           10.18559596433002       -4.14921667155590        3.11559353094718
C           10.80068044833887       -2.94182316787101        3.44960009649068
C           12.17162995862367       -2.82780432986110        3.46545377268580
C           12.98013077115801       -3.90838300994855        3.14230776342199
C           14.46321396447678       -3.78733156041718        3.18898014904552
C           12.37497718515747       -5.11381522501865        2.81552560323837
C           11.00465385676607       -5.23381382558918        2.79857783521695
C            8.06159754311315       -5.35929725110714        3.72396302718005
C            8.55876134082317       -6.45978468740302        4.45279029801428
C            7.47761305022732       -7.23786330718655        4.84409754453509
C            6.29871542140552       -6.63411075456588        4.38923659186792
C            4.89949331627992       -7.13200441475283        4.49911580289637
C            4.57403621097983       -8.14842670982111        3.42697491928672
O            3.41481280766601       -8.43249578432742        3.22629422535670
O            5.62640108072544       -8.69368158741898        2.75590772787098
C            5.16938384276577       -9.60163815598984        1.78117956348843
C            6.30926344910689      -10.20060015029061        0.98335054253367
C            4.62048930658334       -7.69678820131721        5.87123406060211
O            5.23607201178669       -8.66271745678754        6.26152809320682
O            3.66594477847284       -7.04443678088034        6.59096982307475
C            3.49530299393391       -7.66213426821384        7.84555528293801
C            2.46087472636244       -6.95320585962427        8.69547970716370
N            6.67335887509083       -5.52343455139165        3.72844084057538
B            5.68801224963408       -4.55064640651099        3.08207713247269
F            4.85754207048051       -4.02748393378325        4.05601689135549
F            4.96409877374424       -5.21566024929280        2.10942018146871
C            8.19940625564202       -2.18651542909862        1.71461724372536
C            7.00757278875788       -1.63234604288331        1.26826251790227
H            1.21808046308518        2.27945112695462        2.90464670981127
H            1.67583366822237        1.00127618585264        4.03460090747408
H            0.59693839474602        0.63867793636764        2.69947646006980
H            3.55873651576932        1.42102949732141        2.40733360065143
H            2.47169481704449        1.05749481766958        1.06256858697057
H            3.94520532797638       -2.74480634696986        2.28263577015592
H            3.53850171921697       -4.87083439808122       -1.20988908321116
H            2.53338772977962       -3.52100588956073       -1.75240139883063
H            1.53451858111292       -5.91377471885785       -0.09297255212793
H            1.21713515801458       -5.70029167477915       -1.81782909714335
H            0.53026512077646       -4.58144478739599       -0.63567036343561
H           10.18605342801301       -2.10134205260232        3.72233942327287
H           12.63066766497643       -1.89291358645909        3.73693533776027
H           14.78470835813682       -2.79088381625602        2.88496255921418
H           14.93830095930194       -4.50578250159280        2.52058468097670
H           14.83306002845587       -3.96915244975809        4.19837759457020
H           12.99183812221387       -5.96164847878062        2.57253213042809
H           10.54834886218705       -6.16736317737842        2.51783401968333
H            9.59321678201764       -6.65182634800573        4.68067089435137
H            7.51651238648666       -8.15833336154503        5.40345789433043
H            4.23165500317168       -6.27358105400522        4.34742975938241
H            4.46802207503288       -9.05523931088358        1.13460199581900
H            4.58985961227143      -10.37533437135468        2.30431962071294
H            6.88210144864754       -9.41589067872008        0.48860628986177
H            5.95720332147381      -10.89664733869833        0.22018496024040
H            6.99628320412000      -10.73501007841282        1.63980409748548
H            4.47862360449337       -7.67886318347865        8.33663165051499
H            3.21395533974256       -8.70751954894546        7.65489607008106
H            2.75570824414460       -5.91887817310018        8.87386595645263
H            2.32017287366956       -7.43816758396149        9.66292715098616
H            1.49799229850538       -6.92964265604551        8.18473102537483
H            9.18928982981628       -1.82651986713328        1.49213955611169
H            6.89636066253972       -0.75783246213464        0.64805289501791
