55
 energy: -10.333608005168 gnorm: 0.000606627083 xtb: 6.5.0 (97a52f5)
C            1.61553663637518        0.50447625401939        2.00769761465847
C            2.87299341862963        0.10372853593020        1.26370322847859
O            3.16700772283810       -1.26545283718264        1.41790003728932
C            4.29204901072121       -1.58978266579985        0.72164924885912
O            4.93807507076086       -0.80887081532739        0.06064054511765
C            4.69583490596373       -3.04326628178052        0.80290563481792
C            4.22648787343738       -3.79823389394168       -0.41930101698349
O            4.88878966430820       -3.80361438340355       -1.43195198034412
O            3.02537637399722       -4.42571871767103       -0.28091453525887
C            2.68021061399534       -5.09130710290762       -1.47353837940712
C            1.34806786459425       -5.80432697766695       -1.36393304138742
C            6.15917092122424       -3.20615703343306        1.03019026912151
N            6.70836746741528       -3.84514634707430        2.06899122620035
C            8.09213932243256       -3.86431889615387        2.00231651896991
C            8.90774125975986       -4.50920985631852        2.95596511042076
C           10.37610533402942       -4.52502056889338        2.84439726397938
C           11.09097637868541       -3.35832469481486        2.56629131867534
C           12.46232643828945       -3.37720247329630        2.46241296431350
C           13.17394279060234       -4.55601438393978        2.63452878763733
C           14.65627029697001       -4.57367695793688        2.49591684810782
C           12.46916948000722       -5.72193646300527        2.89957879370574
C           11.09805313751525       -5.70916526744729        3.00682847946113
C            8.23120208898839       -5.14497222752916        4.01392003027625
C            8.74754742754897       -5.84361747112415        5.16815909223913
C            7.69822094222556       -6.25750730285575        5.93009397855093
C            6.49284598798138       -5.83582431154175        5.29432707713172
Cl           4.91574608942127       -6.12069772752502        5.82232288807581
N            6.87020189006359       -5.16862399274149        4.15331975763501
B            5.89264454554832       -4.50011666456171        3.18429121066023
F            5.17449358531262       -3.51980582938597        3.84527069408546
F            5.05868123669014       -5.45340964045295        2.62808041418200
C            8.41022656171172       -3.17963066137675        0.80516369384913
C            7.22783886898828       -2.77853788323247        0.22059543341514
H            1.38521068329358        1.56433359085253        1.88698819368827
H            1.71974037452481        0.29913736970520        3.07334960239288
H            0.76081683088641       -0.07106599825115        1.65157797839558
H            3.74868720048077        0.66553891490269        1.61823455906498
H            2.78260824369383        0.29649311509282        0.18527837123145
H            4.18190491195745       -3.47826894241217        1.67168930805757
H            3.49569082397109       -5.79245716426462       -1.70084398002703
H            2.67102640001910       -4.33853730338773       -2.27445429380024
H            1.37279154074956       -6.53868159968759       -0.55848814904011
H            1.08038372137957       -6.32152261639518       -2.28684209824093
H            0.55319432094311       -5.09612658848801       -1.12895230234283
H           10.55451360072094       -2.43189812008800        2.45593907503232
H           12.99817373194741       -2.46896071477788        2.24645048377875
H           15.09756989765452       -3.66104130422101        2.89733408830576
H           14.94432716259393       -4.65681725439235        1.44764739018853
H           15.09266107358712       -5.41556105694655        3.03390525234325
H           13.00881505327529       -6.64592486048731        3.01638464300552
H           10.56313218330316       -6.62474322437310        3.19093417093072
H            9.78926316393715       -5.98789703079375        5.39818219724497
H            7.75332881909691       -6.80184357147442        6.85779622476573
H            9.39918695413604       -3.02456520390390        0.40875608499400
H            7.11523210082972       -2.23904489584691       -0.70612600650311
