81
 energy: -15.786146526425 gnorm: 0.000680129497 xtb: 6.5.0 (97a52f5)
C            2.16995341224376       -0.56394238474116       -0.30073403702821
C            2.67998743534609        0.74792360572873        0.25606359509773
O            3.38824927420712        1.51268670181538       -0.69578875045449
C            4.66267073744270        1.02571710371325       -0.88002356710230
O            5.09201544052555        0.02640050686433       -0.32156725947051
C            5.52290149820723        1.80051120024184       -1.82323799556272
C            6.70348906146558        2.32314642877446       -1.36883379885285
C            7.07259222785642        2.07962921826564        0.06297536680703
O            8.09917709719215        1.48227580766923        0.32610259709471
O            6.23158957012127        2.61881038091350        1.00028642981235
C            6.68119321447221        2.30947543703356        2.28326790439030
N            7.55921562371550        3.21419579583457       -2.05307485401492
C            8.30725634561824        4.13121411944191       -1.15464807240936
C            8.65063104136789        5.47137722931137       -1.80319267051047
C            9.36392224011138        5.24653005535379       -3.09541277643333
C           10.39466799076053        6.07453817975325       -3.50599061143662
C           11.11554565666722        5.83815723612394       -4.67090029590494
O           12.14225746850146        6.67527764070376       -5.11813540632422
C           12.37953562679821        7.81851662389556       -4.32672474392735
C           10.78661876937928        4.68798831683707       -5.44110862364443
O           11.44039227260343        4.29478226249237       -6.62333904867531
C           12.66200931861655        4.93618154385866       -6.88398241791523
C            9.74403735557143        3.87997807787052       -5.01997047310513
C            9.00861494300049        4.14096036936146       -3.86467739183451
C            7.88436226671140        3.27689532008990       -3.44446298475892
C            7.19940373268070        2.64235650118001       -4.40984095411362
C            6.08908985663395        1.65901449811856       -4.28518114147988
C            5.49025371043424        1.39774473447742       -5.65537977507368
C            4.90472023290997        2.42915185962523       -6.37657503902705
C            4.33273422748633        2.19450265912415       -7.60649601857530
C            4.34067822880580        0.91688176382568       -8.13829624828704
Cl           3.60984725435558        0.61413736636894       -9.67469017066425
C            4.92960768315134       -0.11883085275948       -7.43394240156616
C            5.50065779630863        0.12160271937538       -6.20391446475399
C            4.99290714805274        2.02591845408413       -3.22750371785259
C            4.42546450256161        3.43797579912543       -3.39868483680090
C            5.02992960725942        4.66746281169636       -3.25006597526713
C            4.29931066793288        5.81688185418661       -3.47474532459781
C            2.96549277155284        5.74231822224559       -3.83831708101950
C            2.34314455816196        4.51898879302861       -3.97714347120335
C            3.07722362610661        3.36359832633381       -3.75318227120208
C            2.66886464241423        1.95649098605994       -3.81975410736213
C            1.44802229218165        1.38973531139767       -4.15354323264704
C            1.33237036413143        0.01515693804187       -4.16330479984062
C            2.41532444438171       -0.78631526031849       -3.84341138696146
C            3.63241026412917       -0.22553881731917       -3.50652056749323
C            3.75759809695311        1.14860402423933       -3.49382654978926
H            1.61812112274976       -1.14061376692810        0.44335333645364
H            3.00012838014625       -1.17615834665078       -0.65357573305717
H            1.51004340899952       -0.39026124465358       -1.15076616190430
H            3.34854786257533        0.59000743861349        1.11349205951213
H            1.85138331658101        1.37477201563669        0.61251113015851
H            6.00324686481289        2.75001144073543        3.01773836782925
H            7.68781126250482        2.71075948900376        2.42229634992592
H            6.70052649204101        1.22349247347864        2.40274367234057
H            9.21879888162920        3.61220711268664       -0.84194711140829
H            7.71218468389132        4.28975028326620       -0.24848716349172
H            9.26988181705812        6.08124044497819       -1.13377405115064
H            7.73931759101062        6.05122292663432       -1.98619022184577
H           10.63858727471798        6.92018515837575       -2.89170145866219
H           13.17565767808328        8.40130550919910       -4.79183290432271
H           12.69958959724862        7.51931152688895       -3.32772536217016
H           11.47756125603139        8.43008576467967       -4.27687319482116
H           13.15070976534858        4.44503239130846       -7.72657490426616
H           13.30111988657582        4.87459440708691       -6.00175097672160
H           12.47104264454236        5.98189987189071       -7.12973660892389
H            9.52983592257544        3.00665815847179       -5.60638349753860
H            7.49188198336523        2.84637844100019       -5.42510905116715
H            6.53320768176652        0.71407443988111       -3.93849190318969
H            4.89012326901902        3.41907477757211       -5.95551301191381
H            3.87066164009918        2.99190675854469       -8.16320178144688
H            4.93002081912948       -1.10767576998316       -7.86003947495903
H            5.95426560531676       -0.68531448048948       -5.65492490011310
H            6.05860008414715        4.71260186418848       -2.95118911225049
H            4.77084213229942        6.77936403554651       -3.36350077520835
H            2.40695622433774        6.64782953844048       -4.00950417964365
H            1.30569223223301        4.45068395590482       -4.25271283906011
H            0.61371338080702        2.02030313936261       -4.40490486599544
H            0.39063569392943       -0.43890505864186       -4.42431992364155
H            2.30915198112014       -1.85853154113961       -3.85836659256925
H            4.47745996623301       -0.84125862422723       -3.25354773307750
