84
 energy: -16.165587102698 gnorm: 0.000862465466 xtb: 6.5.0 (97a52f5)
C            5.24107443871517        2.58083855028569        0.73519629621676
C            6.40685678103139        1.61362024084018        0.73952892860181
O            6.13051312213447        0.45240965075365        1.48940286971994
C            7.19226943953945       -0.41001788033307        1.44500899134169
O            8.23842833055145       -0.19180943113739        0.86419030825446
C            7.01429819080841       -1.68239628630519        2.18693461832845
C            5.97268208747121       -2.56901484700956        2.06261762653435
C            4.85497764839148       -2.48688289596473        1.09114355962528
O            3.70761266377290       -2.56844922521206        1.51435193216365
O            5.10832514398001       -2.34610460488584       -0.26878909749575
C            6.44519539077103       -2.63700662450992       -0.66972005693311
C            6.54774067323044       -2.86922109705316       -2.16134444918099
C            6.18119336013030       -3.71868306560440        3.05086435601024
C            6.70378578337572       -4.94654646143174        2.31073194358477
C            7.84681175722213       -5.09860473549727        1.56120114876266
C            8.12996474860691       -6.34011601392046        1.01291958369205
Cl           9.56380700056109       -6.54406596628534        0.07663128063065
C            7.27241314118673       -7.41673491207049        1.21734487725229
C            6.12909661468875       -7.27085394138746        1.97192479412880
C            5.84346528014727       -6.02688732468127        2.52499532812610
C            4.73942235233148       -5.59437558817158        3.38153837364681
C            3.65418195270366       -6.31400949981203        3.86993569106170
C            2.73739798875107       -5.67310772972129        4.67248075729491
C            2.89120321676427       -4.32653285125107        4.98406346823447
Cl           1.74919036454341       -3.54413504897785        6.01341162894481
C            3.96909862561671       -3.60539500068368        4.49309780860883
C            4.89989399989770       -4.23996607420627        3.70217608973362
C            7.26436112668938       -3.14971280773692        4.07335774463710
C            6.63752205235802       -2.55163966926147        5.30110964152787
C            6.13137040832023       -1.32396754998982        5.31172021025783
C            5.43734085239888       -0.70445565812593        6.43873133151239
C            4.83833095919265       -1.46287313959925        7.44198307737847
C            4.17463821915050       -0.85312909565039        8.48409117672653
C            4.09383183487173        0.52257672644972        8.54322338951560
C            4.67527732691149        1.28928960074153        7.55428629542791
C            5.33735621060976        0.68256258703452        6.50961174548543
C            8.33920766618045       -4.15668177326196        4.45405888937294
C            7.95505760760910       -5.36143269045639        5.02308117652107
C            8.86177068929500       -6.35259771645131        5.36093258254584
O            8.47000454870688       -7.57536579456530        5.92383437642853
C            7.08270180561995       -7.83112379146340        5.89713580470158
C           10.23929596500735       -6.10406563808751        5.12779156896218
O           11.27909140012830       -7.00696495268472        5.41326107381445
C           10.87895809145541       -8.32491088418020        5.68398517938244
C           10.60842622528824       -4.88399995743395        4.58129778636968
C            9.68930057079185       -3.90274429148032        4.23684210054066
C           10.18754219079038       -2.61703473841406        3.62687065894867
C            9.14045892041846       -1.50172002851226        3.58386444453185
N            7.82933311596063       -2.05335685117013        3.24184231987133
H            5.45179303927209        3.47822455240168        0.15122933770973
H            4.99404676236261        2.88856509005114        1.75140278336607
H            4.35224645406303        2.10672950222730        0.31838737259023
H            7.30958209319188        2.07155730005931        1.16656346721569
H            6.66406927353540        1.29077994099516       -0.27871170641771
H            6.77810098872336       -3.52202810621723       -0.11584698459607
H            7.08057645302660       -1.79878184107581       -0.36410117188449
H            5.91675246714221       -3.70523930839618       -2.46371805776542
H            7.57012960458186       -3.08723474325324       -2.47445890596807
H            6.20537472760208       -1.99201717522984       -2.71058299714415
H            8.52331802227893       -4.27536512418335        1.42217112852127
H            7.52141168096122       -8.36756809893642        0.77822424291969
H            5.46455669689466       -8.09944473403814        2.14061681480489
H            3.54276302268114       -7.35389349954483        3.61896955546748
H            1.88900580274644       -6.20411701241003        5.06918895718892
H            4.06856194600991       -2.56416604525069        4.73587449691266
H            6.57062398314144       -3.16929645353367        6.17663759989088
H            6.22181404843960       -0.73426164288421        4.41722732582481
H            4.87724587207277       -2.53651430617038        7.38992469163270
H            3.71282634334453       -1.45226922055171        9.25151789879250
H            3.57447100074187        0.99799673864812        9.35912082947610
H            4.60955807930730        2.36385420995035        7.59794626153258
H            5.78900694333376        1.27980432828418        5.73615135244950
H            6.90745623727861       -5.52518536056345        5.18571892904017
H            6.91322031347841       -8.85567196930771        6.23055820275645
H            6.70342432943241       -7.72334181784121        4.88015349428473
H            6.56669045927548       -7.14938941374699        6.57448865521273
H           11.76343651119958       -8.96008649832021        5.74864190023257
H           10.22905075696208       -8.67873070295867        4.88220415750187
H           10.34131188940692       -8.34747178112095        6.63299671509283
H           11.65424582995155       -4.70716946013376        4.40987987923865
H           10.53725848459101       -2.82936634656766        2.61029697968483
H           11.07234738933789       -2.28163323341797        4.18122745416767
H            9.39568616608592       -0.73427618443968        2.84517824273739
H            9.05951844287358       -0.99965480399106        4.55240986618414
