84
 energy: -11.182634984654 gnorm: 0.007884234836 xtb: 6.5.0 (97a52f5)
C            3.66410212689970       -2.64196460839377       -1.42019517673315
C            4.71213188849602       -1.79357928349425       -1.96983726698338
O            4.48791993837742       -0.43137968391928       -1.85671125535333
C            5.64931012712754        0.24385538936945       -2.12380003559792
O            6.70083128200115       -0.28409832782637       -2.43916818596115
C            5.56825622540476        1.73301513010964       -2.03743908522396
C            6.02304875820733        2.52642120390684       -1.01868685544729
C            6.54828426300523        2.07095269322869        0.26674927879168
O            7.09779982102408        2.86498866575612        1.01828624380281
O            6.36817548469344        0.74454197262002        0.57217101383583
C            6.91287014515880        0.46193362775786        1.81591195470463
C            6.79378191460548       -0.92501596657227        2.23130549223894
C            6.01944655526066        3.98791473244953       -1.47068922436607
C            7.39001740260141        4.43391596504439       -1.79416716045985
C            8.41500963949781        3.67363824492821       -2.09765600423729
C            9.63776136882308        4.08737236783527       -2.38257005186393
C           10.68261589860624        3.22853084320511       -2.60115027711184
C            8.64566734131166        9.60349794534399        0.22226115277344
C            7.65869861232841       10.40266324704969        0.35066111647233
C            7.65997619370684       11.66375371524503        0.77591945190318
C            8.72022043663854       12.42068344066447        1.16765469593971
Br          10.36840010836765       11.77849649209419        1.17931972586025
C            4.32547287066742        6.55956610850784        1.65716746452692
C            3.80568441394743        5.42984669909079        1.22837851588869
Br           2.19387365600057        4.85846214195881        1.96795167115299
C            4.34518520559104        4.64400232118459        0.26420580947851
C            5.43821498428188        4.86586697238694       -0.43288250982871
C            5.17350102129697        3.95158916155542       -2.76108653384534
C            3.88390047955864        4.55813154100358       -2.64404202488144
C            2.91817066445799        4.88319526072112       -3.45755216047531
C            2.81578029399383        4.62659415438471       -4.90740817659979
C            2.30604772535275        5.61310070196607       -5.71586277651589
C            2.07006718369321        5.56163202032230       -7.01849127219735
C            2.30241532578761        4.47906609778793       -7.77889196775372
Cl           2.91265502650145        3.15544169510768       -7.00168286449013
C            3.11890177678076        3.40862692216325       -5.42297595787805
C            3.40963506318202        2.69152193523446      -12.64932281337544
C            6.26238363880865        7.17830385279995       -3.66818498984650
C            5.67278489599881        8.38198852207900       -3.72133233360161
C            6.32580583565526        9.39626526202944       -4.45942236490990
O            5.73407320011173       10.54123964132427       -4.49919101709124
C            4.51971472320889        8.59176941173134       -3.09300273949429
C           11.43162845198102        7.64977917418868       -6.97584145134807
O           11.20033127590481        8.75331015679537       -7.44506920635040
C            9.02952266422054       13.24515912586452       -7.20986141376719
C            7.46619014219076        3.76465640682589       -5.36892640343881
C            6.12240715836291        3.38466745527553       -5.39182562724164
C            5.80441357750571        2.18935741917558       -4.47435025525653
C            5.16628058848736        2.53601719104608       -3.14020962746663
N            3.48265532916093        1.89904780484307       -3.11470713714344
H            3.91351934485032       -3.68440793997291       -1.45008840415521
H            2.71036953506126       -2.47781837796224       -1.88081637463321
H            0.97240092604477        2.75958312550852        3.57468236867061
H            4.97022350060403       -2.02781610879152       -2.99355362561258
H            1.63346870610877       -0.16488690814425        0.07586187080462
H            6.53073779511061        1.16476863583709        2.54378968606195
H            8.04665843780086       -1.28776006201254       -3.97825241523954
H            5.77710803840938       -1.26092218187617        2.27239625156009
H            7.29408916803418       -1.13371543280076        3.15603123516734
H            7.19409741272370       -1.10899979735628       -0.45982658966639
H            8.41264033841263        1.10546547554090       -2.19787533954210
H           12.78268945863188        2.43880194950356       -1.83205617045715
H           11.12252821952175        4.33251561126680        0.47241132983804
H            9.73335424778855        9.57719069352127        3.17376500933068
H            3.16963669724488       11.46038484650045        1.88892618693256
H            4.03152241621683        1.34374896528177        1.00882111077029
H            2.08208477795914        5.41084483670184       -3.02796917553715
H            7.94495468664839        5.62907098789740       -9.67919769002355
H            2.28370280651311        7.24493026487186       -0.45842317338267
H            2.09501829219775        4.46440537477324       -8.83257664744305
H            2.70421271178865       -0.76655035040918       -9.31140020915635
H            7.23382588350164       -0.48869961800229       -8.74957031484957
H            5.84876317563994        6.37185512540305       -3.13956051102255
H            4.91581100528631       10.53320344993751       -5.07094878736567
H            5.00325023052954        7.96095668819598       -0.73747405832799
H            4.83946335987805        6.43082719504157       -6.36384837790020
H           11.83187472174182        9.45570958605318       -7.12499590918388
H            8.07489381488645        9.22553870921943       -4.16578551167868
H            6.91008676912377        8.61637149881294       -5.98472305854489
H           11.56848393573544        6.22217618048155       -6.07213953295596
H            5.83008024128454        3.16294810754202       -6.42699492106494
H            5.50306416819125        4.23728039361205       -5.09322586110875
H            6.73694897685631        1.66422148498355       -4.23493014653026
H            5.16140343001566        1.45409468967586       -4.97449152893853
