84
 energy: -9.017203672298 gnorm: 0.119860406103 xtb: 6.5.0 (97a52f5)
C            0.90685986633584       -2.00294229955031       -2.06486916880139
C            1.98704116482891       -1.91532352808691       -1.10142723186364
O            3.00255353640744       -2.84404672354766       -1.26870360703201
C            3.87288382718046       -2.43369672091754       -2.24506068305791
O            3.76068046100975       -1.39694225824708       -2.87415552092056
C            4.97201199006838       -3.33495880839268       -2.52141465967618
C            6.14798062194023       -3.42894380676650       -1.90810293199626
C            6.60374808412161       -2.59494259200767       -0.79967021042561
O            7.73617957345318       -2.74525803851964       -0.36235357936304
O            5.71974252606572       -1.67583463965468       -0.29539328162551
C            6.31916316135767       -0.95183715270520        0.72258213748388
C            5.48757418759686        0.08980544162038        1.30058045332808
C            7.00713469937204       -4.49770741916210       -2.46419529317304
C            6.59104069715821       -5.85945056343680       -2.27100008106215
C            5.47681858616922       -6.27485782986138       -1.71860855809730
C            5.12541952061630       -7.53832087634009       -1.55995829997287
C            3.92275907168018       -7.90941882038184       -1.02020415931664
C           12.28565830288728       -9.26387371971610        2.49953684750713
C           11.33467503045236       -8.53679820935328        2.05332352853011
C           11.26461988540156       -7.21282261431356        2.05375769273291
C           12.20542381970829       -6.33173283880229        2.52934043525732
C           12.17129760071810       -5.00503173731711        2.55078592460871
C           11.21700917942266       -4.15824537207734        2.21854063291791
C            9.95174759493144       -4.37626885665836        1.89330335829525
C            9.14846525014124       -5.30569714158386        2.49178132268054
C            8.86845773448525       -3.75051058946292       -3.81564134666725
C            7.68344308492682       -4.20451989946859       -3.69675664718435
C           14.16946841134427       -2.01652677772276       -5.45711672321355
C           14.22895743581132       -0.77326071370760       -4.95381158626323
C           13.93069270978779        0.30706854794538       -5.55548815729398
Cl          14.02091443471763        1.82908730093434       -4.86190245894976
C            7.23655222616665        1.81154557182688       -2.94975479760705
C            7.61789518268376        1.01322628817000       -1.93352145935235
C            7.22024191228300       -4.09816006526860       -7.17972974203581
C            6.40544027463101       -3.17589992704907       -6.80986374979834
C            5.34065553038442       -3.32469088135567       -6.10047370085051
C            6.09927896164145        0.48584803743648       -7.32986645860683
C            5.54217140660517        1.52588980816529       -6.79747214069228
O            4.49588940352355        1.63336062861803       -6.01366214630283
C            3.76741803319472        0.76441746092929       -5.56518317529167
C            1.82691832359105       -4.27427849800960       -9.07454878247865
O            3.79648721266542       -2.21188218038388      -13.05244524417393
C            4.45116941504034       -1.53500175604699      -12.33701943931465
C            9.10166358350898       -5.32641564397472      -10.85723938479302
C            5.59422216896151       -7.06244894140173       -5.91438526852660
C            4.73935654486382       -7.29402134561128       -4.98209314908957
C            3.38653940192107       -6.93018107088908       -4.97359603985770
N            3.04405395296352       -5.64524599632677       -4.54042705487703
H           -2.26480533391521        3.79134528728858        1.97219460321437
H            0.39462072875967       -2.94090086190864       -1.99868245278572
H            1.25310609649069       -1.85939102236135       -3.06851531918228
H            4.34333081737123       -3.10530623956075        0.68351574937097
H            2.40405588120886       -0.92230314207501       -1.01312893023562
H            9.78357111594507        1.85138819301565        0.43450937318359
H            6.72918256319859       -1.63588304924041        1.45343583196294
H            3.30852561918942        4.23932358195992       -2.48530148388097
H            5.99936201801693        0.68620449740847        2.02984927429722
H            4.56719532582553       -0.28508494070441        1.70062953595721
H            2.61720419982629       -4.95459042144349       -0.89795021041109
H            1.75269807743806       -9.14328689961782       -0.92333390395612
H            4.93833804592763       -9.65664400521040        0.44245896933690
H            6.88851595019199      -12.77153023986929        2.82371880604559
H            8.99727955450104      -10.41000723982452        5.95266560099837
H           14.77031239143859       -7.26903149155915        7.13125823560464
H           12.56708413715875       -2.06188947206745        2.22806285061468
H            9.78254317054323       -2.49692550960980       -0.54075805194492
H            7.87917041708261       -1.19545751822371       -5.14873057859382
H           12.88817696940308       -5.62984695524978       -2.01396255265723
H           16.95988287188974       -2.44552392069130       -2.26243643162616
H            9.94671420802854        3.36561815287625       -6.39285265286249
H            4.80169550402493       -0.05610231735907       -1.45386270532470
H            8.92470292847014       -8.40346394255808       -2.57750331665472
H            5.85296216358008       -1.04404237579153       -3.45531873880501
H            2.22286812295655        0.32227478859064       -6.18280488232326
H            3.36514257847050        0.30033588697762       -3.97092646991693
H            4.02877331517547       -0.95319082019408       -5.28738470319097
H            5.64313489794523       -0.36112171082139      -12.82681645799327
H            5.55025911661892       -2.14371484262339      -11.15109037288061
H            3.81528581718590       -0.43158320032356      -11.19478148852148
H            4.63652830603166       -6.40786438658668      -10.47978521008147
H           10.08879528692766       -8.31124312717477       -7.18348618988871
H            1.08051218709676       -8.65578389649198       -8.68096219572128
H            3.85643492478687       -5.04718145935639       -4.38973396557257
H            2.46855441646907       -5.64869755721353       -3.69537598603730
