86
 energy: -16.801006800321 gnorm: 0.000474322465 xtb: 6.5.0 (97a52f5)
C            1.66366412225766       -3.11209822086878        3.87772204223053
C            2.87448758305005       -2.23639111108949        3.62995640429913
O            3.95933856485438       -2.96505620232043        3.10299798818246
C            5.01884560103460       -2.13247827924405        2.86683193406277
O            5.03989699374193       -0.94708512199905        3.14068965616286
C            6.23872485666734       -2.76335156613660        2.27428895720602
C            6.13181399400138       -3.32550703287046        1.03272968888574
C            4.81865659673476       -3.26814307728508        0.32667081507230
O            4.28151219651710       -4.28735795193684       -0.08307547622106
O            4.29417970176257       -2.01048592231696        0.14114980957596
C            3.06056450191698       -2.08154392394560       -0.53403970782387
C            2.47689053405066       -0.70897512500916       -0.79864240754249
C            7.31559473569857       -3.92797980087901        0.30224832125890
C            6.94733476687687       -4.35495489225739       -1.13110116060716
C            6.43636289710104       -3.61547342321897       -2.17899331837332
C            6.22095553576703       -4.22728494143715       -3.39832149333904
C            6.51322737290564       -5.56866847429957       -3.57535149805298
C            7.02044756145137       -6.31916250383116       -2.53526591890794
C            7.23816450042995       -5.70670787805075       -1.30985034929255
C            7.73154898028603       -6.26365066018011       -0.04736936917552
C            8.09352123814370       -7.56500436255496        0.26936040189726
C            8.47946023624025       -7.85542705331671        1.56107929688300
C            8.49408738612490       -6.86611853229543        2.52872062316172
C            8.13052250483808       -5.57221784398556        2.21383152446722
C            7.75878222449808       -5.26041749451817        0.92300073412997
C            8.49165048703054       -2.89836080553869        0.19905294810901
C            8.09277039226876       -1.59711463615272       -0.47063118034635
C            7.29092052828285       -0.67134656883036        0.17779715564612
C            6.90086302851924        0.49002040045392       -0.44785681968123
C            7.31516549471350        0.75632047922441       -1.73688444111366
N            6.88918390053234        1.98557174954122       -2.41096773079342
O            6.11321638001661        2.75074079987062       -1.81758368267089
O            7.31818021934453        2.21753902964449       -3.55196266902633
C            8.13098810032748       -0.14765173278485       -2.38711411744189
C            8.51842542777597       -1.31132934594497       -1.76020568801738
C            9.23237756553877       -2.63511540496312        1.46717819971033
C            8.76622154114691       -2.56489531924198        2.72607273811349
C            9.72877076648203       -2.21301087608834        3.79805558038141
C           11.09440824729586       -2.47633793406614        3.68050553026315
C           12.01415982285013       -2.10432309524834        4.64853213431611
O           13.38523976830776       -2.37342082342652        4.53638934253094
C           13.78769467513345       -3.00069415316700        3.33916807190484
C           11.54333207714167       -1.43061020208063        5.81014839368895
O           12.34554382596401       -0.97660153198933        6.86708229806469
C           13.73079594735682       -1.11023608521832        6.68556403462610
C           10.17859072322828       -1.20642931892268        5.93552171599198
C            9.27502798785859       -1.59050421560591        4.96208684799838
C            7.80094952846984       -1.44570945078041        5.15681923909479
C            7.11584961714193       -2.66317189446116        4.54662597625094
N            7.39016172051762       -2.73451465434555        3.09037100570890
H            0.82019596788073       -2.54609849155908        4.27645273606896
H            1.90290613841599       -3.90654355890077        4.58484587713428
H            1.34248653033134       -3.59186087274338        2.95306972945075
H            3.22034803985302       -1.75526711395164        4.55524182144862
H            2.64885829909832       -1.43105873686796        2.91724495529296
H            2.38834810051614       -2.69424083094559        0.08209225160108
H            3.22925633034907       -2.63413285851832       -1.46853281406566
H            2.32567623471956       -0.16978816040870        0.13662194229461
H            1.51912010426123       -0.76119114975039       -1.31886213059346
H            3.15890574263273       -0.11267769709318       -1.40499411303519
H            6.19828611082894       -2.57718467135778       -2.03117155371302
H            5.81939905622210       -3.65437652357111       -4.21790829279634
H            6.33917700954627       -6.03157391825318       -4.53277925074236
H            7.24412780144223       -7.36370110525985       -2.66105641097660
H            8.06366000553796       -8.32962219617108       -0.48657403427333
H            8.76451544212653       -8.86182833069335        1.82022973367872
H            8.78823717775643       -7.10772090443922        3.53685993608177
H            8.11822150762019       -4.80656304956168        2.96367076346099
H            9.20995190846545       -3.38846421878997       -0.47889683690719
H            6.95741032393179       -0.87449838217742        1.17884808840256
H            6.26393177711612        1.19866593841096        0.05335092281720
H            8.45267707783632        0.07082252085741       -3.39097346091570
H            9.14588894993939       -2.01634796633629       -2.27780439154047
H           10.26264340336651       -2.35873778918862        1.32258640832056
H           11.43782533215501       -3.01486913750744        2.81961160989739
H           14.87262997818131       -3.11138595159958        3.35708893337170
H           13.51083773794963       -2.38260617661732        2.48406136026870
H           13.33297711936672       -3.98966259191217        3.26782282643255
H           14.24638140962837       -0.66060226416018        7.53532243243476
H           14.02544806463044       -0.60254789194616        5.76566332536103
H           13.98275309498284       -2.16999830011286        6.62085895198140
H            9.82510510946884       -0.72323189882946        6.82776670825513
H            7.45445670887055       -0.53576754073902        4.65398077527181
H            7.55617656585120       -1.33516965359771        6.21995086745801
H            6.03849985116398       -2.66151033730605        4.73795480279644
H            7.50390702781954       -3.57982120225542        5.00207314869434
