53
 energy: -10.282524530819 gnorm: 0.000886261565 xtb: 6.5.0 (97a52f5)
C            1.06941280582339        0.55444434465299        0.28922267494043
C            2.48910148735933        0.15387719736058       -0.05616951216955
O            2.84903166268509        0.53216767043191       -1.36641704579408
C            4.11558628302257        0.09624310850301       -1.66428071613916
O            4.81327455699930       -0.51560593911668       -0.86927822148395
C            4.63238688782297        0.36282114925867       -3.02216368910113
C            4.12041057650048        1.34135862297968       -3.82590659851264
C            3.00174543299867        2.20889532454812       -3.39038868483645
N            4.66812026153682        1.57879312852186       -5.08069477403766
C            5.78621835066505        0.90314997175692       -5.53126352950559
C            6.35190830329558       -0.09055914080982       -4.79090271453893
C            7.51202551219087       -0.61079952691023       -5.49079950836264
O            8.25534740519672       -1.50584503263343       -5.12554140896223
C            7.60835164353073        0.16780742521146       -6.73971915661372
C            8.51278880956570        0.10772915070301       -7.78326073986127
C            8.35357898577018        0.97754884068161       -8.84509855320600
C            7.30874062455433        1.89143108297195       -8.86556030723683
C            6.40175577742623        1.95492785447380       -7.82542083368484
C            6.55576780688008        1.08555096053228       -6.75624786510283
C            5.74937872314705       -0.55444896361152       -3.49748713088806
C            5.25471266994803       -1.97952936992516       -3.61183475648830
C            4.28579733975836       -2.30489429348041       -4.54700601499179
C            3.79610711511241       -3.58618150554931       -4.64146217820965
C            4.26038269622335       -4.59459747323577       -3.79519528193804
N            3.74502658781990       -5.90743529146516       -3.87366962137036
C            2.57826033223141       -6.22289792425660       -4.69705436329126
C            4.33210810478300       -7.00784261995703       -3.10976926393127
C            5.24093149833946       -4.25973486930541       -2.85957894698218
C            5.72646371471707       -2.97589602875172       -2.77091304438339
H            0.79135717830816        0.25530315103832        1.30134553765992
H            0.36208540931657        0.09719259699056       -0.40292612551998
H            0.94375131698629        1.63433333425640        0.21057696079965
H            2.62678285602970       -0.93354066768169        0.01845296847245
H            3.21450723447476        0.61441965090745        0.62770207092950
H            3.22667795925381        2.67406583369460       -2.43086484769602
H            2.08852005588923        1.62563709579041       -3.27363234784104
H            2.80766428796208        3.00199586688741       -4.11134947770165
H            4.29138328173081        2.32518769038429       -5.65606783702410
H            9.31711025141637       -0.60599432739049       -7.75386466675964
H            9.04925353873891        0.94543808085827       -9.66727047415760
H            7.20360570163083        2.56062880174506       -9.70347556807251
H            5.59014104058435        2.66039698583054       -7.83347346683651
H            6.54226686207262       -0.52679112814183       -2.73549560299740
H            3.91688703916149       -1.53194973293333       -5.19849565946037
H            3.05013558709067       -3.81714308977875       -5.38061513249127
H            1.78567465664507       -5.50104852955931       -4.51323772908594
H            2.19196378817233       -7.21166873465308       -4.46156520385086
H            2.84818569741687       -6.19876468540303       -5.75022241594180
H            5.41257458909053       -7.01674794060305       -3.23682321531646
H            3.94662533823132       -7.96620577368179       -3.45059978588838
H            4.09627385512632       -6.89535846876477       -2.05356370257132
H            5.60954187895113       -5.01375509438139       -2.18753763722931
H            6.47139863981307       -2.72983876898810       -2.03401485474079
