46
 energy: -9.437609027106 gnorm: 0.000959983552 xtb: 6.5.0 (97a52f5)
C            1.53086129311675        1.71666814613528        0.13232844465543
C            2.89387873466300        1.06996369304936       -0.00490987319825
O            3.24204396506492        0.31877647482718        1.13412150762724
C            4.49132495684294       -0.22835763463928        0.97964602652425
O            5.17985325837255       -0.06207778383757       -0.01976460177751
C            4.97639338969853       -1.02745882325314        2.07552046051918
C            6.21957025420775       -1.65076888137044        2.10465702141975
N            7.16113819281821       -1.62778633369396        1.13538069716100
N            6.38490610193821       -2.31322256560498        3.31926367308101
C            7.49216419587536       -2.98895501200098        3.81796944740081
O            8.49269907606045       -3.15296650088245        3.13983713316503
C            7.38939908435419       -3.47222696905011        5.19791928464087
C            8.44268705669370       -4.18312180021649        5.75746042383510
C            8.37740882079310       -4.63533702832127        7.05366722685601
C            7.25339776476965       -4.38165524151520        7.81934087440798
C            6.20132486228725       -3.67719195768531        7.28426356338378
C            6.24674031553795       -3.21350215930246        5.97664507481806
C            5.10582407065864       -2.46871570420534        5.43087068728071
O            4.14026268461598       -2.16633243105091        6.11813485391271
N            5.17669213256501       -2.13431730529116        4.09157470730227
C            4.20908329252091       -1.31457775390828        3.35611000034207
C            2.91528597381177       -2.04416964096366        3.12776748266166
C            2.93334329558661       -3.37034269305120        2.73223488306002
C            1.75890826342194       -4.04913578579371        2.49959690501317
C            0.54595640295532       -3.40920139824686        2.65705891559733
N           -0.70482479254403       -4.12967147965302        2.40866372975077
O           -0.64603405062472       -5.31216402029587        2.04771872935594
O           -1.77574032481426       -3.52997207390026        2.56844344196227
C            0.51946750009174       -2.08543719524838        3.04825648024393
C            1.69445246422792       -1.40631544438475        3.27981204974748
H            1.26340409381274        2.30473182284208       -0.74738163092004
H            1.50688783479018        2.37596295892876        1.00054872008955
H            0.76092868117805        0.95884174801617        0.28010233659843
H            3.68545955380095        1.81954740459888       -0.14937929655079
H            2.93497349659368        0.38582902932646       -0.86481088845809
H            7.04378679981349       -1.10066045727901        0.28283506660063
H            8.05536515799699       -2.07236177653111        1.27272426252911
H            9.31414429816009       -4.37044497991597        5.15221472045955
H            9.20242884447950       -5.18640114309603        7.47533207357897
H            7.20377720863421       -4.73719600318084        8.83581933996658
H            5.32103124233457       -3.47250860615690        7.87072078542764
H            4.03908622204835       -0.38649943092067        3.91786792629794
H            3.88251500653363       -3.86392692016926        2.61283927186041
H            1.76725888927844       -5.08223585048131        2.19367331966036
H           -0.43367820569399       -1.59736328291872        3.16793902154178
H            1.67333264067098       -0.37095120969884        3.57538572056490
