44
 energy: -8.976858371122 gnorm: 0.000873655734 xtb: 6.5.0 (97a52f5)
C            1.08424711316199       -1.34280955473259        0.53239134260317
C            2.51891868436538       -0.88086272994404        0.38478208579583
O            3.05597278784415       -1.20595614854120       -0.87670001362808
C            4.35597319251388       -0.76968567855965       -0.97237647171116
O            4.94647580357486       -0.20028828074903       -0.06144735344130
C            5.01549902000907       -1.02327600867953       -2.22862637605018
C            6.34030493630189       -0.70258448829508       -2.50533692714913
N            7.21696671600003       -0.09648401271577       -1.67414577162154
N            6.66931532794847       -1.12983713214621       -3.79096417544679
C            7.89259209312047       -1.09703275790847       -4.45219798058487
O            8.86830274378993       -0.55470151341338       -3.95842616039267
C            7.94013882278210       -1.76680347541314       -5.75636069835088
C            9.12036145301443       -1.76208465791552       -6.48823076210594
C            9.19992774220341       -2.40296324951885       -7.70156641489621
C            8.09638962967512       -3.06645307679561       -8.20743689444684
C            6.91947033016584       -3.08436908629578       -7.49711238892990
C            6.81764645830338       -2.44132735926553       -6.27086834858728
C            5.54529134482554       -2.47465338808545       -5.53752395903569
O            4.58824207868888       -3.13099064215569       -5.92691797183542
N            5.48540518935970       -1.71325403299668       -4.38402336916176
C            4.36476839660534       -1.67412212149816       -3.43839327458156
C            3.20057997937690       -0.89125772554674       -3.97839323275810
C            1.89682685762793       -1.30195699105236       -3.75850156533232
C            0.83900509966880       -0.55641709740620       -4.23362090558689
C            1.07390208446597        0.61016591483961       -4.92922021409456
C            2.36781968845848        1.03115446281569       -5.14838552745732
C            3.42345536721869        0.28354822180518       -4.67284902782441
H            0.66777733699752       -1.08711653432009        1.50810462869040
H            1.01468658602320       -2.42349471594378        0.40754677114232
H            0.45495024432465       -0.88885507552275       -0.23303723176648
H            3.17052415479974       -1.33850474841123        1.14187052214980
H            2.60632047455528        0.20811489942657        0.50199010279809
H            6.97050825200945        0.17798165739145       -0.73537426170965
H            8.17029592313960        0.06558902373121       -1.95746473045712
H            9.97512061538975       -1.24872999530527       -6.08146813423319
H           10.12281374164806       -2.39143225905408       -8.25789456590003
H            8.15999003374829       -3.57011363079530       -9.15798787379901
H            6.05476486350569       -3.59870966882626       -7.88093130860054
H            4.06526035846555       -2.70411454665565       -3.20556419164775
H            1.71717036128525       -2.20519258086217       -3.20149138014100
H           -0.17209180182212       -0.88509666396952       -4.05829121958885
H            0.24677207643134        1.19367454181287       -5.29921735864549
H            2.55463087317766        1.94428608817365       -5.68908741366512
H            4.43736696525096        0.60424681930386       -4.83642999801120
