42
 energy: -8.305862977850 gnorm: 0.000213066505 xtb: 6.5.0 (97a52f5)
C            1.82637535358343       -0.92226540559338        1.02414184818736
C            2.97517298509204       -0.46287060834290        0.14967197687646
O            3.36119692121785        0.86539378700202        0.42940755071087
C            4.35554152428699        1.27509216566211       -0.42619240921528
O            4.85084953337119        0.56107669570324       -1.28539958775390
C            4.81833665002633        2.65861408187371       -0.26227405702801
C            5.83724093380831        3.10806572268618       -1.01652489412535
N            6.36619736739093        4.39051750411723       -0.89660357537677
C            7.45709424430623        4.81125700378192       -1.73181327460709
C            7.53259856390966        4.40068528901555       -3.06045077186115
C            8.58229482585517        4.79389822123490       -3.86026747239201
C            9.57681476447974        5.60412362985402       -3.34966894188733
C            9.51712147604232        6.01993137082278       -2.03445227620906
C            8.46869298365664        5.62790679574364       -1.23226037319909
C            5.83627456484901        5.25405468687847        0.08885371374473
C            4.82436945002779        4.89490228955288        0.87180939138161
C            4.13553310465625        3.56402594488852        0.73823758474282
C            2.66864608358598        3.74808069062407        0.40416041430100
C            1.68107939416484        3.43629354113738        1.32599836863444
C            0.34859118398127        3.60301682406934        1.01106401699540
C           -0.01289924792480        4.08623065397157       -0.22902217159269
C            0.96058429225729        4.40465766425646       -1.15259222630831
C            2.29228508707668        4.23766237135339       -0.83545795614684
H            1.52955308585719       -1.95003750721773        0.80815954524276
H            0.95485287541246       -0.28289950821451        0.88142884165006
H            2.09799491575792       -0.86404083341620        2.07836664174761
H            2.70923015423752       -0.50947224064899       -0.91507976300692
H            3.86164579882364       -1.09719525826758        0.28406408808743
H            6.29370392794826        2.43738133013693       -1.72009775990048
H            6.74794096648476        3.78521175722720       -3.46375338947564
H            8.62686484650073        4.47006074619618       -4.88724142111264
H           10.39843039001451        5.91052590288237       -3.97614023961481
H           10.29490317756982        6.64931285456851       -1.63385581502282
H            8.43661321357161        5.93192481853603       -0.20100544750274
H            6.26812303402307        6.23484067310462        0.17437649577763
H            4.43382593425108        5.59247839150200        1.59380041169918
H            4.19801582031430        3.05289084934815        1.71213410804267
H            1.96380176910027        3.05234237305660        2.29103730957477
H           -0.41036535205877        3.35267801781777        1.73414654119234
H           -1.05416958344249        4.21429581465320       -0.47573820025136
H            0.68107415333057        4.78245516783751       -2.12242405678673
H            3.05735883260749        4.48227573060368       -1.55173276821332
