29
 energy: -6.156051765051 gnorm: 0.000230153413 xtb: 6.5.0 (97a52f5)
Br          -1.48181253814868        0.50183011002093       -1.02558918023245
C            0.31919592639470        0.23109180631206       -0.51671371181838
C            1.00266612193996        1.21998217804517        0.16097471334112
C            2.31578986665682        1.02520657524591        0.53742715406294
C            2.97289364887721       -0.16930424146321        0.23829853698759
N            4.30653485971706       -0.35559403732148        0.64288740242705
C            5.14350625522356       -1.46258059760188        0.41184284559855
C            6.42599516740320       -1.43907432794115        0.99521825336112
C            7.28262555688252       -2.47160502082565        0.81413659416466
C            6.86778956420156       -3.56005527677546        0.03003749885249
C            7.69256311221215       -4.67782389059200       -0.21360513280354
C            7.25037165901643       -5.71031746754590       -0.98700163657052
C            5.97085945931541       -5.67065956172139       -1.54749635789611
C            5.15162529129587       -4.60292512621426       -1.32546621637400
C            5.56897713166277       -3.51406163076198       -0.53028579639935
N            4.72050645453422       -2.47358680921432       -0.33329549300662
C            2.26508802661676       -1.15244223734310       -0.44925548222646
C            0.95263561906006       -0.95589937679289       -0.82167089413691
H            0.49602614148100        2.14287465671760        0.39161331304194
H            2.84642789062828        1.79691409603904        1.06665108777649
H            4.71294415165821        0.40376962218856        1.17914109221881
H            6.71465713328465       -0.59082910819806        1.59070974463719
H            8.26381625873304       -2.46940164540304        1.25643513176288
H            8.67740660267779       -4.70448900885939        0.21965266866641
H            7.88747408206723       -6.56020152816009       -1.16867472338993
H            5.63174797931447       -6.49021157396681       -2.15957455853009
H            4.16634622660349       -4.57081833340370       -1.75621602271182
H            2.75941879050714       -2.07353751643057       -0.68724820749967
H            0.40880356017860       -1.72135072803417       -1.35073262330168
