56
 energy: -12.261607064529 gnorm: 0.000328462528 xtb: 6.5.0 (97a52f5)
C            0.12516905113300        2.86057921173897        0.46702325551156
C            0.12779429296450        1.52023408947157        0.21324617861315
C           -1.06816679933641        0.67217857701130        0.15674604911915
C           -2.41507897985803        0.98081473473636        0.31115957190641
C           -3.35113994849832       -0.02369875052572        0.16989238172773
C           -2.96261406410186       -1.32477642498992       -0.12431324681898
C           -1.62946956600360       -1.64488578390881       -0.28450921480173
C           -0.68000541784878       -0.64124793008694       -0.14725842267339
C            0.77844445342160       -0.67481565335415       -0.24890062954192
C            1.64732362483018       -1.73688450739292       -0.46193213011481
C            3.00664183605392       -1.50142811527067       -0.43149858297400
C            3.49930387767252       -0.22828219404210       -0.17733833029625
C            2.64316111312297        0.83247882601639        0.03588273543595
C            1.26912298257284        0.62171412338134       -0.01962911351684
C            1.24681692552708        3.77802126253547        0.30186537852800
C            1.48002508251392        4.79587207551136        1.23538407568951
C            2.51555002663823        5.68124867698782        1.07211630565490
C            3.34813163432654        5.61860151739288       -0.05249567239348
C            4.46206999712148        6.54745088356245       -0.20545566984993
C            4.86323712322598        7.15079061858441       -1.36121515810917
C            6.11824051703486        7.89139502192811       -1.53212075332007
C            7.15951006322502        8.14165900855144       -0.64532300452141
C            8.25674980369259        8.85323628077826       -1.08691670667976
C            8.32907349676137        9.31347219680752       -2.39583333565493
C            7.30488563937367        9.06878206479849       -3.28834035272434
C            6.19770922222512        8.35189975156490       -2.85491082071882
C            4.97454719014364        7.95513650420469       -3.55120078946250
C            4.53910112362506        8.22518183240669       -4.84184985668509
C            3.28557964150397        7.79432327699346       -5.22540466838479
C            2.46614713063670        7.11609282956767       -4.33284222456814
C            2.89051361284383        6.84436755647299       -3.04841101528277
C            4.16258833459771        7.24409314622854       -2.65146485444009
C            3.11220272071963        4.60283258750631       -0.98721080592618
C            2.08307824730365        3.71272236199760       -0.81958684798295
H           -0.80523319647624        3.29678195627808        0.79077943474102
H           -2.71495126218267        1.99008378289317        0.53125030580857
H           -4.39788011390803        0.20489318366492        0.28683455206070
H           -3.71092314750906       -2.09314698687417       -0.23015923248676
H           -1.31994729162780       -2.64965094084606       -0.51251182056307
H            1.25612024358734       -2.72414618649522       -0.63414260370045
H            3.69291944070137       -2.31659247961039       -0.59313849529385
H            4.56443625998325       -0.06788834339836       -0.13926776958610
H            3.02911647711753        1.80779389855009        0.26830322535285
H            0.83914321591276        4.86592208163357        2.09755160741466
H            2.69082061252835        6.44997568240712        1.80512999287098
H            5.04045336247745        6.75037818298177        0.68053988595583
H            7.10504379132170        7.77915135624287        0.36590348219094
H            9.06905619340037        9.05338888745143       -0.40743703243960
H            9.19542737927743        9.86734256899742       -2.71869904073724
H            7.35254545769226        9.42186432061085       -4.30342640821141
H            5.17160510974837        8.77286960190176       -5.51815548509112
H            2.93377966437195        7.99814507331758       -6.22355403706089
H            1.48302496838568        6.80379688715886       -4.64532442238736
H            2.23862315365033        6.35207038621819       -2.35064563082127
H            3.76229696121601        4.52199476776689       -1.84150592356541
H            1.89765873115977        2.95585266199411       -1.56229830920851
