41
 energy: -7.643709517578 gnorm: 0.000197514845 xtb: 6.5.0 (97a52f5)
C            2.17292845204988       -1.17167502039597        1.64518949940413
C            3.26727541822904       -0.45955405337772        0.87747654854216
O            3.40283956576472        0.88817072599823        1.26929061387728
C            4.31146631092408        1.53375666525902        0.46897090724195
O            4.92796148731037        0.98855075835015       -0.43298525154336
C            4.51752766744028        2.95903296294363        0.74674306605504
C            5.40521668711470        3.66301231936710        0.01839044091003
N            5.65533974410771        4.99366175847755        0.27433572724832
C            5.07569007253195        5.64627792243088        1.34053096475405
C            4.17269943137334        5.03815919694305        2.13362420427169
C            3.61117792130156        5.75333959924409        3.28442653618407
O            3.94149188485257        6.90657986796392        3.51191205298768
O            2.71657297113831        5.05153085585555        4.05261799286629
C            2.21999722878957        5.85860031383039        5.09667264111409
C            1.14178177441381        5.15888604181459        5.89790847612532
C            3.69305821617236        3.63818972444346        1.81832338157470
C            2.22454895920002        3.64023414039688        1.45178249598082
C            1.29269271575465        2.97692378662915        2.23413635117467
C           -0.04329701180662        2.98675897816613        1.89521159150681
C           -0.46404530072080        3.66021369006442        0.76837201402009
C            0.45372444054932        4.32372221734404       -0.01796935537921
C            1.78909316046163        4.31285113086143        0.32349511920975
H            2.07021764757277       -2.21523528050255        1.34311279473883
H            1.21272976116039       -0.67950998633553        1.48946285264778
H            2.37690142265889       -1.14780987885175        2.71574011524852
H            3.06713740858562       -0.46613094434352       -0.20293602268671
H            4.24381827190243       -0.94065754258044        1.02461411569034
H            5.94926717266771        3.16662917572354       -0.76673983516726
H            6.34286969269484        5.48537393490628       -0.29187847695681
H            5.36861387192215        6.65856354590255        1.56031271424815
H            1.84283450343725        6.78470040854856        4.64121035770312
H            3.07553227144309        6.13746969657936        5.72671712277527
H            0.30140225899051        4.89026817800925        5.25753975937394
H            0.76225647565235        5.78185940902634        6.70952865149840
H            1.52433855505341        4.23470168684323        6.33128275801978
H            3.80760667222826        3.04409100695732        2.73723334826520
H            1.62397395997673        2.45252114918017        3.11382611805678
H           -0.75853737642151        2.46773194829513        2.51202748463733
H           -1.50855117649045        3.66834423604040        0.50330991967967
H            0.12744697362852        4.85120583424657       -0.89921612231510
H            2.51184983638971        4.82881983977215       -0.28409367357943
