52
 energy: -9.544003073470 gnorm: 0.000526832655 xtb: 6.5.0 (97a52f5)
C            1.08518280560711        0.08611531776350       -0.67966588013561
C            2.57843456791572        0.17559622465317       -0.91901845464045
O            3.05795368468088        1.49440317623233       -0.78341054297662
C            4.41315904149640        1.51915566006696       -0.89606085739229
O            5.11581763303551        0.55270778327491       -1.09607298301503
C            5.05943148933291        2.87874445627390       -0.73594641039391
C            4.53066505740100        3.88714529724670       -1.71748927203564
C            4.51923116471683        3.88436903016927       -3.09372181599745
C            3.95249786370825        4.94634316354587       -3.79607661057588
O            3.99932724103839        4.84181178479969       -5.19223892178056
C            3.46732646711985        5.92445655933969       -5.90837252324288
C            3.37837145442929        6.03990260478625       -3.07161036632034
O            2.81575111524044        7.09982786461554       -3.79503865191071
C            2.36824367636421        8.19153108260624       -3.02400975020450
C            3.39566694277082        6.01284934498335       -1.68404364553517
C            3.96850825963945        4.94221650953513       -1.01729044568234
C            4.09785982881305        4.70625232366965        0.42779577943505
O            3.70689369935632        5.45570843757814        1.30306184112697
N            4.75386849512672        3.47783901681922        0.58562309796825
C            5.06712122088835        2.84976046804276        1.82355091925768
C            5.69306865782461        1.61504767994454        1.87241310121745
C            5.99816831508135        1.03318981907083        3.08239406106872
C            5.68485880620853        1.64696710055450        4.28667692397403
O            6.04438249627372        0.94855894846147        5.45571462119741
C            5.58617972516750        1.50105481418524        6.66106642939012
C            5.03622226682108        2.91153560525096        4.25572855404575
O            4.71441111407253        3.54067776909874        5.46415387015795
C            3.99936906656580        4.75042847453337        5.34761029299623
C            4.75002138854717        3.47481018322554        3.02230926013648
H            0.71109269173855       -0.93361798898950       -0.78462012205796
H            0.54594570137515        0.71983609345034       -1.38393959470433
H            0.83724412764850        0.43656066694545        0.32251238974961
H            2.84865698747279       -0.16576088248035       -1.92799537413914
H            3.13717305124754       -0.44952467680529       -0.20832512944097
H            6.14799577968736        2.78540582389159       -0.84080309837902
H            4.94453052937955        3.06141081375700       -3.63728407228675
H            3.58150788986731        5.73323119423853       -6.97642962423174
H            4.00544563259622        6.83416693636954       -5.63637636951712
H            2.40933130795591        6.03150344915274       -5.66260764099979
H            2.00850264586604        8.96596984025943       -3.70293736870476
H            3.19451942528347        8.59219645994465       -2.43486530563216
H            1.54668505896782        7.87692770064532       -2.37896628339479
H            2.96912826281043        6.80782281235824       -1.10328776946032
H            5.91237663566528        1.09802827423515        0.95534539998935
H            6.48370037844529        0.07364585173801        3.11618914160198
H            5.86054687500805        0.83718093356271        7.48213777959021
H            4.50096775655684        1.60838862829147        6.61885546560589
H            6.05037663379542        2.47824869578959        6.80484997341446
H            3.78184029539238        5.11781648387869        6.35148407586788
H            3.05913227401016        4.57600656194692        4.82212211371146
H            4.60549570500649        5.49134893500492        4.82428036904447
H            4.26559080895682        4.42980089245621        2.97027942422994
