40
 energy: -7.811189440787 gnorm: 0.000894103907 xtb: 6.5.0 (97a52f5)
C            0.86557021114035        0.34416885909438        0.48387454171659
C            2.30648672204779       -0.12307134011412        0.45616616261858
O            2.92136991993213       -0.02811410456752        1.72096268388500
C            4.19631365298357       -0.50935776406808        1.66442237329406
O            4.72943358155902       -0.95203974689037        0.67253971293632
C            4.95858024454711       -0.45090182921696        2.97156326053054
C            5.58581964529478       -1.77055351412306        3.32723626057838
C            5.01968832525741       -3.01277419514410        3.51835264832427
C            5.84418299442946       -4.08045977501906        3.82206479506768
C            7.21503008196232       -3.90816702211792        3.93041836509254
C            7.78577125484438       -2.66750728055756        3.73592015847665
C            6.96146719334122       -1.59873039999718        3.43073640610163
C            7.30727636641927       -0.18690739488217        3.17701553928328
O            8.42893958154602        0.28104220621214        3.21523502392957
N            6.10793068102397        0.48609751132163        2.90773651603720
C            5.96980264188843        1.88335831164131        2.66916447139249
C            4.74396075554453        2.44446090994661        2.32924679377398
C            4.61930324301168        3.79527669496950        2.12321585206100
C            5.71669092175847        4.64927426537751        2.24530495984286
O            5.49828056020841        6.01668302613624        2.01673744495710
C            6.64145026647076        6.82953691781253        2.13617681336347
C            6.94744994465209        4.08337142635899        2.58254404971610
C            7.06469907810989        2.73038785185985        2.78675281504416
H            0.39162507547769        0.27570344798227       -0.49670097601818
H            0.80402312474455        1.37995952441870        0.81806736595752
H            0.28251004465115       -0.25375733125205        1.18462849504552
H            2.90969632773111        0.47027345842971       -0.24480232279188
H            2.38276587214374       -1.17113088088262        0.13487431793403
H            4.28444970773310       -0.12666533225132        3.77478637434745
H            3.95490981643422       -3.13668185469190        3.42565568414412
H            5.41557790963171       -5.05738078441686        3.97350651338875
H            7.84203254377900       -4.75194597631049        4.16726669248450
H            8.84816269904411       -2.51602351871656        3.81484196007319
H            3.89235466247084        1.80085821560891        2.20408034938148
H            3.66934962694498        4.22483382652566        1.85829277289834
H            6.35418700775618        7.86067861691147        1.92540877121902
H            7.39544261096701        6.51684620124012        1.41221143508279
H            7.03296938537048        6.76951896102873        3.15277256955853
H            7.81452087412277        4.70978096778464        2.68534978390180
H            8.01536484302282        2.29975884455103        3.04516256537010
