88
 energy: -16.360117713641 gnorm: 0.000904698117 xtb: 6.5.0 (97a52f5)
C            2.22876448817343        0.77052872199787       -2.04403780876581
C            2.84947445544889        2.15104835443825       -1.97613928569963
O            3.33756394635005        2.45518068401927       -0.68799577120136
C            3.89566257319626        3.70155302963491       -0.67194537134856
O            3.96649059840179        4.44248031806030       -1.62884280742686
C            4.47322869320237        4.13571461241222        0.64628072980354
C            5.99466235580324        4.06473668043902        0.64706694260981
C            6.61255575045176        4.49506232963473        1.97659933530423
C            8.13888483813485        4.43219941743304        1.97716070582858
C            8.74926532052270        4.85165318450651        3.30634940329439
N           10.22265672104353        4.81202928559366        3.28294290488316
C           10.89472944474633        3.63301423882481        3.67725123697103
C           10.21629766249925        2.43775557361437        3.94629813712502
C           10.88530279585311        1.31443764285737        4.35592364156125
C           12.27650252223811        1.32280564371383        4.51630877281502
N           12.95981778693239        0.18528456176442        4.94168962514359
C           12.95848496980040        2.49806519453332        4.23771495254580
C           12.29521490271184        3.64126343187843        3.81784228802429
C           13.06732567037102        4.84283207674549        3.52121891852770
O           14.28312488414963        4.86918889244992        3.66896693115326
C           12.34077694363200        6.00455583681013        3.02929411528082
C           13.04314295311151        7.14597751190989        2.68164466132160
C           12.41088032852432        8.28076030531732        2.18896354862870
C           11.00967002784023        8.23411676404595        2.02983107902087
C           10.30623519729630        7.09492126465592        2.38415100510203
C           10.93654936749082        5.96789946942265        2.89722207281544
C           10.29153316849814        9.37596521198107        1.48166918751924
O            9.07215292347955        9.36305035323878        1.36481374009127
C           11.07919000856867       10.52940950935286        1.05979846027400
C           10.43511895655340       11.61314131077061        0.48163313004769
C           11.13711918490568       12.72539163701548        0.04096087933705
N           10.47256570857199       13.81040031038713       -0.52761069445792
C           12.52978170392746       12.72621229586447        0.18787886456194
C           13.17912887542900       11.66423937652373        0.76030963617318
C           12.47730562914447       10.54430484844353        1.22326186138533
N           13.12158972687766        9.45162714345033        1.84587097224214
C           14.56045727134359        9.53408444543397        2.15673939891970
C           15.42223803584626        8.97963463013496        1.03220916689272
C           16.91715575967931        9.02484537857067        1.34327379096933
C           17.77469552034017        8.41659347177584        0.23435317903139
C           19.26703133199307        8.46718108159485        0.53387805098164
C           20.07644744323347        7.84572601089309       -0.57018039123433
O           20.17116748664248        8.41605375987323       -1.63575795394042
O           20.64369387385603        6.63821532164911       -0.27710803075739
C           21.35257204295353        6.14410522036983       -1.39215873228093
C           22.00119772154315        4.80374724036544       -1.11202835260579
H            1.85261297079784        0.53636989083115       -3.04136739934865
H            1.39854122791126        0.68779107436537       -1.34226912467173
H            2.95827667230058        0.00785944379148       -1.77057655376673
H            2.12331727981041        2.93159736994880       -2.24197442878949
H            3.69142257783311        2.24753729340429       -2.67539912556258
H            4.06383339697226        3.50329089636886        1.43966636849939
H            4.14014480304131        5.15486104840102        0.86291525214513
H            6.38753847309137        4.68821755608394       -0.16467600726238
H            6.31244506777561        3.04412086850258        0.40340662249586
H            6.21883703004059        3.86758271486941        2.78481044030319
H            6.28719046137516        5.51327045527492        2.22031701598201
H            8.53684893623229        5.06440268459002        1.17550518227173
H            8.47030457344466        3.41870324009614        1.72488783709281
H            8.38580291893310        4.21931200289265        4.12027687241538
H            8.42444065389925        5.85789050778996        3.58344243129654
H            9.15110884365214        2.38875965700409        3.81396996897627
H           10.34649598242605        0.40649329875787        4.56162873561123
H           12.51983677451492       -0.71717833925566        4.90667992804050
H           13.95420438944331        0.11259560632984        4.81808114369769
H           14.02631293731113        2.53241327543215        4.34732424842875
H           14.11032817798899        7.11948259634949        2.78891839716595
H            9.24447365355682        7.10250392845952        2.22983860031737
H            9.36661907394738       11.58306532017186        0.37738549908760
H            9.52697172283625       13.71697724046864       -0.85411382164073
H           10.97758801736634       14.48875962051793       -1.06991957878112
H           13.08523269683788       13.58040773868729       -0.15673552291242
H           14.25062771215614       11.68979507033291        0.83531293350419
H           14.75219851107366        9.00277886227579        3.09262062452880
H           14.82427333701219       10.57095339328918        2.37879789934823
H           15.21706662403088        9.53057581510162        0.10741368914111
H           15.12079473170001        7.94864076686789        0.81575420380951
H           17.11169711524648        8.50034274280634        2.28613832453069
H           17.22540391869695       10.06156277773850        1.52223423118745
H           17.57727003134435        8.93157262772687       -0.71312942255934
H           17.47326314383232        7.37656982973991        0.06236089434579
H           19.48410000572042        7.94623941981472        1.47120207998579
H           19.59194350787610        9.50209212468824        0.67520023241714
H           22.09910470210736        6.90218643730272       -1.66651944665651
H           20.64163548724451        6.07917476985724       -2.22739636353146
H           22.70429928865984        4.88304304808204       -0.28255358598523
H           22.54171956198818        4.41845232089745       -1.97834566125729
H           21.25059543696884        4.06576941879031       -0.82781974017541
