52
 energy: -9.947605868558 gnorm: 0.000572499567 xtb: 6.5.0 (97a52f5)
C            1.47549257238614        0.02120232890588       -0.53989303991412
C            2.36500847365141        1.24001552052430       -0.68023386173788
O            3.06591228832821        1.52172730802400        0.50890466570151
C            3.81832871918416        2.64851862246805        0.36023065536269
O            3.87395314975709        3.30598275776650       -0.65486509612641
C            4.61248646999701        3.07132322521923        1.56368994498260
C            6.09430933991505        3.22843350516528        1.23966161922543
C            6.93005445456610        3.68846391057017        2.43614213074054
C            8.40593654791551        3.89936412060973        2.09215674816120
C            9.23825564574398        4.37260873475793        3.27727653727717
N           10.64507722300872        4.62176699974476        2.90486469002253
C           11.01716984910695        5.90210881012887        2.45162500743634
C           10.08249811314121        6.92256972836931        2.22392504906600
C           10.47635040014470        8.16294990041008        1.79724774702885
C           11.81754996947146        8.43954565706861        1.57640247365718
N           12.23715774839651        9.76105607411147        1.12051726604585
O           13.44355323096529        9.96599168177729        0.92951450374119
O           11.37383126039948       10.63048902518883        0.94016843365815
C           12.75224029471540        7.45425888518523        1.78232107451335
C           12.37430426238776        6.19095344273896        2.21039575382445
C           13.39462692700065        5.16714628356005        2.39907181094272
O           14.57730595521622        5.41255123810885        2.22708538713420
C           12.94721407405211        3.83493291636635        2.78649778009091
C           13.88011490137542        2.81807812242493        2.91881136738573
C           13.49495446399527        1.54607258543998        3.26583564590270
N           14.49466800825258        0.49085989609302        3.39700695019109
O           14.12050226173710       -0.64921344964805        3.70460073513871
O           15.68387570760487        0.77331691211452        3.19498598537044
C           12.15114281533020        1.27548453144455        3.47875196859342
C           11.21372847388026        2.26641629355271        3.35570157624827
C           11.58205139328455        3.57661585173119        3.01747559089492
H            0.93132273329143       -0.20053232615498       -1.45955657260267
H            0.74804755951459        0.17054620547020        0.25847579806971
H            2.06782026596545       -0.85509257867656       -0.27533031754730
H            1.78401059364126        2.13849324925117       -0.93364644622060
H            3.11522797621742        1.10618342578478       -1.47270574283300
H            4.47098242079636        2.33438102090097        2.36013294182955
H            4.20640716735970        4.01469435774483        1.94066343864579
H            6.20435401488067        3.94138033421188        0.41369528411162
H            6.48664491123376        2.28027625402411        0.85379015663561
H            6.84154503095101        2.95858980400656        3.24899337205058
H            6.51210453243203        4.61878754517164        2.83751381347294
H            8.49501202537139        4.62304486250511        1.27411053883115
H            8.83152202527343        2.97219860520459        1.69206095380079
H            9.20433295320704        3.64962705735027        4.09586417801105
H            8.81945108180729        5.28359146165889        3.71185888301752
H            9.03439855502109        6.73327953431608        2.36583351709472
H            9.75332992307740        8.94217458970364        1.62327762106299
H           13.79354042291751        7.66352879587134        1.60513641588083
H           14.92140751274610        3.02903758723923        2.74344253233779
H           11.86222203864084        0.27057184096310        3.73748554593705
H           10.17838126076101        2.02040695355254        3.50396698787160
