50
 energy: -9.370327023036 gnorm: 0.000596655043 xtb: 6.5.0 (97a52f5)
C            0.91062872226739        0.08945628568642        0.08276334906257
C            2.41105725995581        0.29332699188489        0.02394467435370
O            2.84896309311726        0.68827773299961       -1.25790478039810
C            4.21107400697976        0.79330470546717       -1.28535776147168
O            4.93703657354068        0.57743391646517       -0.33817151954561
C            4.78583701811190        1.18865834494391       -2.62152507371597
C            6.26633638959575        1.54467710398101       -2.55242764555822
C            6.86768622688851        1.88642709036247       -3.91515111056468
C            8.37053172272551        2.15446372873774       -3.85464662075886
C            8.98686490456365        2.40547995005122       -5.22372342060052
N           10.45713819537193        2.50588085880973       -5.16495096366516
C           11.06585386977662        3.76834240802007       -5.02137985913334
C           10.32506217773192        4.93264070676287       -4.78158608297981
C           10.93728657357277        6.15632085571793       -4.67636841509213
C           12.31295580531499        6.26289481661444       -4.80240355098418
C           13.06573099046447        5.13731279759700       -5.02154621964870
C           12.46573258797225        3.88638946597985       -5.12603415191096
C           13.29547603863420        2.70544558284319       -5.33611572368816
O           14.51003651004470        2.79220099020492       -5.46535061611227
C           12.62654790631995        1.40904595323097       -5.37075847635673
C           13.38681669085031        0.25528426241852       -5.49503050909278
C           12.80189745232108       -1.00248762624526       -5.51263995707041
N           13.58158095586097       -2.15208064288573       -5.62760180423795
C           11.40811593078676       -1.08223125026469       -5.40253319652582
C           10.64509898293175        0.04939202248634       -5.28419648470356
C           11.22639399879520        1.32359233229513       -5.27186395277695
H            0.57482668553465       -0.21392851018511        1.07583899564618
H            0.59910250640698       -0.67723390739900       -0.62684869455472
H            0.38694704818735        1.00722665561665       -0.18513512028175
H            2.94972606943269       -0.62808933237136        0.28422729499864
H            2.73984930945858        1.06498295649464        0.73310527313864
H            4.21244476988987        2.03162231311025       -3.01852129138899
H            4.63165418534749        0.36512158508948       -3.32507103738517
H            6.81485004741847        0.70675641105068       -2.10623155244466
H            6.41176750923497        2.37982971169763       -1.85753601818896
H            6.35206489244901        2.75404469369963       -4.34302836887630
H            6.67303470011049        1.06459148920534       -4.61418535987448
H            8.87578435579556        1.30515609294060       -3.38121067599411
H            8.57493281235195        3.00420453040214       -3.19368092519037
H            8.57549669864079        3.30877253470989       -5.68098449601255
H            8.71881450457403        1.60809252995809       -5.92189771874376
H            9.25966525696674        4.87180973934876       -4.65642442536917
H           10.34717029913347        7.03923296769987       -4.49279455855119
H           12.78955815656603        7.22599555735835       -4.72236671662164
H           14.13635200645612        5.20319705397940       -5.11231886172745
H           14.45377771035996        0.34623232594401       -5.57600055796514
H           14.56795048461659       -2.11840921788015       -5.44314902011036
H           13.19952598296664       -3.04836697379058       -5.38559352816408
H           10.94254779438569       -2.05185987228141       -5.41109423608239
H            9.58036562919520       -0.05231071857360       -5.18209852706522
