84
 energy: -15.353911914903 gnorm: 0.000962668135 xtb: 6.5.0 (97a52f5)
C            2.27954515269552        0.69214139041737       -0.50202276554393
C            3.04104168409895        0.33881363523648        0.75940119747935
O            3.32475245212886       -1.04051510847235        0.84335291340402
C            3.99847639989115       -1.31827999966743        1.99818381739519
O            4.31144076768965       -0.49554138186980        2.83179279536853
C            4.38017720458926       -2.75805284337219        2.19980624704467
C            5.86266320842003       -2.98955374174589        1.93763662136610
C            6.29241644487749       -4.43911297154891        2.15992844894879
C            7.78549603991581       -4.66261253443487        1.92560032873023
C            8.21725017366028       -6.10211315012565        2.16541261769854
N            9.67216564992317       -6.28363524855184        2.00235581569535
C           10.18938217314195       -6.63729017478015        0.74047150608283
C            9.38733202981169       -6.69842646645410       -0.40648168680441
C            9.91095581769444       -7.05926774584739       -1.62220953536117
C           11.25546808078324       -7.36980220030298       -1.73971367350296
C           12.06785346705663       -7.30681001050581       -0.63543168124107
C           11.55871854778411       -6.93928908588045        0.60416189807810
C           12.45439261880775       -6.85848650710321        1.75516816250587
O           13.63704555233301       -7.15423596335928        1.66689647697398
C           11.88622050413610       -6.39567102259683        3.01737961065191
C           12.70996863105561       -6.23731600557713        4.11382648340403
C           12.23220822347937       -5.77892131764462        5.34063258339651
C           10.85930583717170       -5.45488145347958        5.42831706855584
C           10.03544400007135       -5.62217737351233        4.33619965260054
C           10.50865144365572       -6.10171363789162        3.11424553115656
C           10.30081759644579       -4.90207416952247        6.66360478946302
O            9.10775169082363       -4.59909176010665        6.72688952701971
C           11.18642186611636       -4.70085551626530        7.76882419326124
C           10.71611175233213       -4.00314666632229        8.91707499322952
C           11.53942499939149       -3.77232589852271        9.94380287188079
I           12.47878257288882       -2.86526479432323       11.80168869150321
C           12.84805654382636       -4.47690003371387       10.07716106198199
C           13.39225234960364       -4.85112257288408        8.74616430061238
C           12.57643772538794       -5.06501882962939        7.67265149092591
N           13.06104221323796       -5.63159838916402        6.46141698878820
C           14.45322451508911       -6.11491050361404        6.39920871235845
C           15.41077889902389       -5.04006381021507        5.90698681217833
C           16.86238128814338       -5.51235344078202        5.84282872773121
C           17.81825746960038       -4.43134518063539        5.34088299446827
C           19.26777364450419       -4.89428130446570        5.27353361581275
C           20.17218180666000       -3.81016153771891        4.75741914752243
O           20.39450325776244       -2.83846507133566        5.44690162987959
O           20.67210969023965       -4.00680311416936        3.50191623300069
C           21.47758866686722       -2.91459239721566        3.11641648877619
C           22.08424842586158       -3.10801391331680        1.74103244807626
H            2.06286556476188        1.75968347710387       -0.56721313188681
H            1.33370688737600        0.15146651081213       -0.54289051943243
H            2.84966386317154        0.40802219901778       -1.38684851857705
H            2.47445647901043        0.61101100828500        1.66081042308424
H            4.00014532996066        0.87248422780540        0.81273917834996
H            3.77405285496277       -3.38466803263023        1.53877505594443
H            4.12614904735938       -3.05265408123841        3.22212951103494
H            6.45105300670691       -2.32614222512019        2.58243725112049
H            6.10520503185650       -2.68275021931061        0.91345144096182
H            5.71307079246064       -5.10029209285191        1.50501807481215
H            6.03233883956499       -4.74549166453197        3.17990215126216
H            8.36531697236624       -3.99549834622925        2.57340498082214
H            8.05244274420905       -4.36325438466988        0.90584336413619
H            7.68928027517910       -6.78725262906742        1.49749117954748
H            7.92875562781260       -6.43304013961956        3.16646669008205
H            8.34622447766408       -6.43985390575663       -0.34621462567399
H            9.27490680767566       -7.09889268664518       -2.49131832390796
H           11.66259381874095       -7.65410951584637       -2.69601312471581
H           13.11678937526872       -7.53685454252548       -0.71247344066070
H           13.75136684381805       -6.46020880376322        3.98360597092365
H            9.00642294367841       -5.33988141446135        4.44861477689934
H            9.73805674113778       -3.55729812219996        8.89358861112810
H           12.74558559441392       -5.37557012043806       10.69553908641331
H           14.45354491790064       -4.99100696851668        8.66755832718125
H           14.49705081911483       -6.99962781362803        5.75882093925578
H           14.75116299347137       -6.48457296617954        7.38357848672503
H           15.33443245214273       -4.15900737332704        6.55415377906322
H           15.09072030073036       -4.68912941631384        4.91939703904847
H           16.93328109615862       -6.39518591826133        5.19672501985407
H           17.18206893806074       -5.85596406665884        6.83346622538023
H           17.75079832506588       -3.54716019551970        5.98543032035434
H           17.49990084534006       -4.08739825717474        4.34992755613023
H           19.35617661751513       -5.77038782528700        4.62443992478675
H           19.61409335395632       -5.20757363496885        6.26259141646271
H           22.25397754085327       -2.79313647465191        3.88478066527238
H           20.84625080404900       -2.01574560648521        3.15514417162069
H           22.70383012398415       -4.00511506534706        1.71729084117607
H           22.70289210784689       -2.26043570189879        1.44073826320179
H           21.30264976591085       -3.23722738883948        0.99161481019023
