66
 energy: -12.753453968300 gnorm: 0.000331692592 xtb: 6.5.0 (97a52f5)
C            0.35159248520598       -2.79549117763045        1.42119844746383
C            1.59294183237067       -2.04628695792719        0.98115579015636
O            2.28057720597937       -2.70947482160276       -0.05727034485028
C            3.34990749278527       -1.96585261200512       -0.46914782947928
O            3.66121851822540       -0.88829120989348       -0.00886770552208
C            4.18401454772853       -2.56981863038462       -1.56460388497768
C            5.56359189141308       -2.97501278294258       -1.06259467219409
C            6.46259880162221       -3.54357357641060       -2.15975174919295
C            7.85238672108708       -3.92147767704322       -1.65092381351727
C            8.76892743041424       -4.45098322563109       -2.74373188294954
N           10.11544699841076       -4.76342148216185       -2.23059894257251
C           10.39848706867932       -6.06138398037542       -1.75982886298162
C            9.41166002937885       -7.04982748872742       -1.65464861258134
C            9.71386969993813       -8.31263029180731       -1.21160329718339
C           11.01237422909440       -8.63557109344962       -0.85367552346211
C           11.99688185495981       -7.68347674402093       -0.93339046883840
C           11.71116597354900       -6.39639504750260       -1.37492306272256
C           12.77590726570882       -5.39795467585320       -1.41707456183320
O           13.92843816156423       -5.68054498806270       -1.12043806649167
C           12.41073716628301       -4.04042442641534       -1.80771842008692
C           13.37031828606123       -3.04438059235760       -1.77657683599985
C           13.08013650059877       -1.72743252179481       -2.11449234714521
C           11.76171646626257       -1.43042452935563       -2.51479246175573
C           10.80147612075586       -2.42545991712303       -2.54252195244104
C           11.09010824362515       -3.74125844634175       -2.19882551461081
C           11.39677225052488       -0.07423451986227       -2.91072883186637
O           10.24697988543179        0.20430336306284       -3.22133589113150
C           12.45843672198256        0.92808135148563       -2.93797944146366
C           12.17353140421807        2.21553971841455       -3.37872900283474
C           13.15385655941946        3.17363765928344       -3.43512631837768
C           14.44702780160246        2.85671357504546       -3.05317004965145
C           14.74817003619309        1.59340208420939       -2.61100154353512
C           13.76590355348728        0.59816844106993       -2.53146755630925
N           14.04835059402390       -0.69992176675017       -2.06022317095776
C           15.37067791495228       -0.98906020771536       -1.47306840112718
C           16.36214254152173       -1.47801531052310       -2.50710616063975
H           -0.17611859811226       -2.28083920027579        2.22595791163839
H            0.60972336610409       -3.79499153991365        1.77148755385240
H           -0.34015418920721       -2.91579664234035        0.58727214165041
H            2.30137096216086       -1.91974333788017        1.81130394368308
H            1.34500263124659       -1.03925984659204        0.61828908823647
H            4.27536735843140       -1.84625898557049       -2.37983976902960
H            3.65929846135075       -3.43550635736912       -1.97962633577092
H            5.45837016167380       -3.70550819947592       -0.25188403799629
H            6.04811448665378       -2.10572901289779       -0.60237753846374
H            6.55587037066543       -2.81335363725942       -2.97213117129632
H            5.98418479341473       -4.41902959713885       -2.61406328031849
H            7.76722175241125       -4.66593304609100       -0.85129456994798
H            8.31982670788005       -3.05231262641866       -1.17451589559160
H            8.85743387197796       -3.73149795945264       -3.56178249872602
H            8.34400844948072       -5.33975994888287       -3.21656794332143
H            8.39268762239438       -6.81743864450301       -1.90381394263351
H            8.93817346515287       -9.05721879626156       -1.13816736477734
H           11.24596099035142       -9.62864645020907       -0.50673586189979
H           13.00861429480485       -7.91602185319955       -0.64819901717917
H           14.36468427324515       -3.32610580904062       -1.48806387754003
H            9.80788609767686       -2.14235149567832       -2.83173031445568
H           11.16557693675272        2.44409258070087       -3.68003509690000
H           12.92088175211495        4.16722988048503       -3.78100718909566
H           15.21943953530942        3.60636331777158       -3.10698305847282
H           15.76296781600522        1.36513407488265       -2.34122640705868
H           15.24470477667636       -1.71773183900210       -0.66632215577072
H           15.73405832209983       -0.09098816855109       -0.96420165595642
H           16.00678566573864       -2.38833613796064       -2.99109189308810
H           17.33923379670753       -1.69277352690390       -2.07023724122972
H           16.50483381378745       -0.73717268579306       -3.29446957881205
