84
 energy: -15.637965243483 gnorm: 0.000659646577 xtb: 6.5.0 (97a52f5)
C            2.84614346619245        0.18413617321788       -1.63429664792515
C            3.13274894407283       -1.25106513674795       -1.24221180334761
O            3.56254702899080       -1.36361354311743        0.09675089874154
C            3.79389278599588       -2.67149520072009        0.41516664360318
O            3.65404879323687       -3.60530745489711       -0.34497026208347
C            4.27729411664821       -2.92085088005472        1.81642306945860
C            5.76376720157196       -3.25056604667023        1.84945782454219
C            6.29340156875211       -3.49564445877766        3.26171267235651
C            7.78273263281938       -3.83422397715026        3.29041081910072
C            8.32169703210982       -4.03743275813489        4.69882315864671
N            9.76376847633093       -4.34533767991004        4.70506667046256
C           10.19128268209401       -5.68790207797847        4.66973558366500
C            9.29813346865103       -6.75206931375006        4.49204868169229
C            9.73429194176911       -8.05274231374958        4.48406670342880
C           11.07915284247132       -8.34030688687717        4.64913195701109
C           11.97867797964192       -7.31712451387541        4.81039224515154
C           11.55856044787562       -5.99185732499090        4.81717554588235
C           12.54552843825273       -4.92565746530530        4.96363831729817
O           13.73274363422824       -5.17196277514966        5.12410574266605
C           12.06604858220742       -3.54965240229885        4.89200407741131
C           12.97673683733848       -2.51018965698470        4.94899640996502
C           12.58609287835340       -1.17935717866164        4.85357010188165
C           11.21295991646550       -0.91105473634977        4.68388968191602
C           10.30078453922912       -1.94980379024841        4.64202866194513
C           10.69022868098716       -3.28010188484480        4.74807820394976
C           10.74081683104947        0.46115648175056        4.53419390008677
O            9.54811798301085        0.70971352858560        4.42694910528461
C           11.74657638183031        1.51918606764561        4.49925464750395
C           11.34869774276036        2.83446990978470        4.28798001144892
C           12.27133878459856        3.84764174016957        4.22449241433484
C           13.61875827272852        3.55963173002466        4.36623221059181
C           14.03231826292783        2.26901985853027        4.58001060968294
C           13.11210652608020        1.21651617530767        4.66421077033956
N           13.51113050596438       -0.11326618121188        4.90702794508051
C           14.92010175120816       -0.40612516019734        5.22799883047915
C           15.73717649539730       -0.73482132056880        3.98715692522769
C           17.19656052413792       -1.06048782306393        4.30004605928408
C           18.00308067310851       -1.44163017235476        3.05935703496199
C           19.46108456613759       -1.75650805762412        3.36702772336215
C           20.21893684267465       -2.14657370974901        2.12890595977914
O           20.54496485207497       -1.29345536914841        1.33198952744288
O           20.46798170857776       -3.48225136054063        1.98937467465709
C           21.16556952810204       -3.73032751133206        0.78872454611183
C           21.47751498514836       -5.20100050794208        0.59930263192087
H            2.51268680682418        0.26953259338716       -2.66975819836811
H            3.73728581786627        0.80023631318064       -1.51445549350795
H            2.07302870494754        0.60958575476094       -0.99437385239406
H            3.91609118421481       -1.69128037186585       -1.87428833635628
H            2.24100752034286       -1.88302359544904       -1.35314864635120
H            3.69680384544168       -3.73835916621477        2.25367741680435
H            4.07070908740797       -2.03658195945314        2.42667278064810
H            6.32767799174076       -2.43657368045316        1.37885761871973
H            5.95440805610335       -4.12990687387720        1.22304945081787
H            5.72296393604020       -4.30338583970551        3.73484933114087
H            6.10624278015078       -2.61110227331485        3.88179941699796
H            8.35164927696381       -3.04125728244380        2.79223972257759
H            7.97258867057382       -4.73241152204232        2.69207313085343
H            7.77945690822599       -4.83371541581085        5.21454913238469
H            8.14546746230516       -3.15201385969990        5.31515847930216
H            8.25368203977305       -6.55317447920384        4.33688783788093
H            9.02881284170180       -8.85573320144382        4.34620935534359
H           11.41750954023309       -9.36333334030120        4.64415122236262
H           13.02846991987030       -7.52396588339218        4.92928291062693
H           14.01358677937475       -2.76794071744619        5.04713626924385
H            9.26873153504885       -1.69362133775508        4.49924128918935
H           10.29876836981233        3.04101203854698        4.16981100273373
H           11.95043599013082        4.86270553831373        4.05789166922711
H           14.34441028058871        4.35405195544804        4.30492591295680
H           15.08452524185603        2.06731866236352        4.66124811383850
H           14.95629912365100       -1.22825611696779        5.94748703937285
H           15.35171015425562        0.43999313792622        5.76838110977033
H           15.68456574105539        0.10145627386783        3.28107934811191
H           15.27580444776294       -1.57630105258530        3.45821782721317
H           17.24170081034190       -1.87651445518133        5.03075539036923
H           17.66656191875899       -0.20392022045356        4.79715022724475
H           17.95407279710775       -0.63285150279972        2.32082466654382
H           17.54013329649068       -2.30567766884012        2.56820279084614
H           19.52843052620086       -2.56944260202221        4.09617052643694
H           19.94837968509656       -0.89118009206059        3.82564770909221
H           22.08234275756280       -3.12551762724911        0.81270433052659
H           20.54864757979178       -3.34147148948552       -0.03290458847322
H           22.08431106501585       -5.57400585649313        1.42452038278413
H           22.01728151577121       -5.39129950459664       -0.32985841080136
H           20.55984985996651       -5.78915831324171        0.58373362924861
