65
 energy: -12.753270621101 gnorm: 0.000701415555 xtb: 6.5.0 (97a52f5)
C            2.17482777867560       -0.14102559783188       -0.44021071330017
C            3.63685894030892        0.21291247510563       -0.25552199461027
O            3.85199373604134        1.03413534444590        0.87249184085157
C            5.17702373967151        1.34967106868751        0.99143685314023
O            6.04618739822241        0.97929230232617        0.23031775461607
C            5.50466784180311        2.22111764364710        2.17620307936347
C            6.97973424665470        2.56536096836090        2.28134776670251
O            7.25970680901340        3.37999466736802        3.41600592156653
C            8.60346892126141        3.74802081637426        3.56037600690394
C            8.93675395942658        4.55290870859703        4.65144100062063
C           10.23259320837671        4.95593243712694        4.86943676638127
C           11.24879537388871        4.57738841963329        4.00570415066375
C           12.67704969439817        4.99578125042833        4.29159318743650
C           13.30698405295520        4.22658532764713        5.43082229524638
C           14.42772864098408        4.63413113847657        6.12720272837504
C           15.16239634376868        5.90218074738515        5.92960007550586
N           14.77256855654145        3.66201879012205        7.04215558720170
C           13.88307945330404        2.60899634834104        6.93597680321097
C           13.81265160904712        1.38033864699840        7.60608215240457
C           12.81846784135595        0.50412362610344        7.26627754470764
C           11.88288556692798        0.82198996449876        6.26858216972464
C           11.93661315006847        2.01615824750685        5.60540194176564
C           12.94860259449457        2.93681317661228        5.93449773902507
C           13.54198602804520        4.98277791981134        3.05278429066862
C           13.69284111607493        6.02843951341829        2.16348323824059
C           13.08630701562625        7.37129282925973        2.28491079409237
N           14.51063235174605        5.62641257539011        1.12786217557354
C           14.87896121865462        4.30869256858191        1.33052316007747
C           15.67468624255904        3.43473358479703        0.57754544074786
C           15.85664192458268        2.15710927995367        1.03270255169672
C           15.26081745669113        1.72069746551159        2.22754218384916
C           14.48061756596854        2.55909318447731        2.97387840307506
C           14.28019707959050        3.87815633401796        2.52972477259604
C           10.92561276205799        3.77747968142895        2.91906674129432
C            9.63219329105418        3.36752213421221        2.69611045840740
H            2.01203914147577       -0.77818697203669       -1.31132697970832
H            1.57324300673768        0.75975372162802       -0.56482741820838
H            1.79143685940034       -0.66435355726761        0.43613287294862
H            4.03220842793084        0.74633452539436       -1.13065459391485
H            4.25314903052074       -0.68741131481440       -0.12791457190654
H            5.17910808512056        1.71794123244353        3.09084362929763
H            4.91607011385946        3.14081951239693        2.11768731142789
H            7.30641996834775        3.10036074861892        1.38237862546134
H            7.57637744989111        1.64938981631155        2.35930307845625
H            8.15153024917430        4.84842558817831        5.32438953460996
H           10.47275298901473        5.56456160651843        5.72435081938041
H           12.62695687477636        6.04360315505766        4.62407342711133
H           15.48694267606979        6.00523535941019        4.89389855447664
H           16.04768365416792        5.94022206453019        6.56406062714276
H           14.53462702916365        6.75847496051265        6.17695826745920
H           15.56802182067429        3.69497880280855        7.67789104873850
H           14.53599876623213        1.14462096990535        8.36592856820004
H           12.75043693623584       -0.44609541076432        7.76992669889355
H           11.11063657604417        0.11171672773744        6.02339223005768
H           11.21946863519925        2.25854443566488        4.84417192250938
H           12.00537866977414        7.29961069776973        2.40857863533980
H           13.28313347953240        7.96698666509684        1.39372436474457
H           13.49343784505501        7.90650941842261        3.14301657450735
H           14.79246044993269        6.19601988011839        0.33152671934451
H           16.12567239265289        3.77675181731306       -0.33665632259268
H           16.46670288771078        1.47240973355941        0.46681432459762
H           15.42310714175280        0.70867049564102        2.55972493716848
H           14.02583056560314        2.23038427442201        3.88907169143736
H           11.70794779723078        3.46890951028457        2.24852056911873
H            9.41575697087858        2.74476794627975        1.84754998606160
