69
 energy: -13.333633290696 gnorm: 0.000636695943 xtb: 6.5.0 (97a52f5)
C            4.63222842039240       -0.89428993056390       -0.00829931552923
C            5.08323209973048        0.54465268685032        0.14487390489128
O            4.78364411841452        1.32341821376232       -0.99453212205265
C            5.21759695824281        2.60905720366688       -0.82846432959272
O            5.81222853699572        3.02107341535556        0.14397448714951
C            4.90432758602081        3.54519182999218       -1.96175063400279
C            6.16734184802825        4.10091420794664       -2.59702550906778
O            6.98889672167454        3.06950572879871       -3.13831368422230
C            8.31215058287924        3.45768486187572       -3.41261614038672
C            8.63659478811675        4.74105285932038       -3.83017583945471
C            9.93770011850349        5.09304218209916       -4.12799710265731
C           10.96062032789412        4.17129750067526       -4.02479409934422
C           12.38807787508232        4.58918705318934       -4.31109518383084
C           12.95008175127150        5.52366117944526       -3.26420993175283
C           14.03432874746620        6.35741988084997       -3.45295795754716
C           14.79926977664954        6.52035205580211       -4.70782671933204
N           14.30735165113002        7.01983897640132       -2.27495351815102
C           13.40874471660578        6.60805145745177       -1.30833395442474
C           13.27511090205355        6.95020044466069        0.04384734982749
C           12.28888259043106        6.34944499618099        0.77751453281033
C           11.42473361178648        5.40769550776749        0.19596349314077
C           11.53989186427184        5.06359692973612       -1.12192099868653
C           12.54313161997816        5.66881159891857       -1.90111781925072
C           13.29507187871302        3.40833367987283       -4.56725897345004
C           13.46939600928721        2.77834841473117       -5.78364539407607
C           12.84946261560538        3.17147102499934       -7.06699012874306
N           14.31693783962902        1.70291146419461       -5.61835007617000
C           14.68067862995781        1.61672162061767       -4.28695802356575
C           15.49175063186675        0.70485238916442       -3.59814759936504
C           15.65239076883450        0.86023930449919       -2.24817968086005
C           15.01972103778594        1.90717581484448       -1.55816556598507
C           14.22562515512777        2.80548408762180       -2.21440115246949
C           14.04758526556694        2.67173334030990       -3.60276920859788
C           10.64999392475072        2.88579370540764       -3.60742364286113
C            9.35700615800401        2.50224360116163       -3.28709565894406
O            9.17593205409276        1.17736694477356       -2.84887703516335
C            8.00569441939392        0.95294828876350       -2.10373345042752
H            4.85865072521041       -1.49315609773285        0.87544332324272
H            5.11742010188488       -1.36184235070056       -0.86526622853552
H            3.55706856437260       -0.94377483258318       -0.18219050886175
H            6.16605965657286        0.60795093869034        0.31596253570303
H            4.59932303472391        1.02544968238997        1.00587948118934
H            4.26396073878952        4.35169016161055       -1.59156515450822
H            4.32441960925703        3.00070832973491       -2.71197886420606
H            6.75941913962218        4.64068825683416       -1.84862405043680
H            5.92354672226287        4.80097878557388       -3.40460466131368
H            7.85642882003362        5.47162785783741       -3.94065893963517
H           10.16823517637323        6.09792537249360       -4.43787175390143
H           12.35544010273461        5.16539606334516       -5.24800878842322
H           15.16978055295729        5.55889645809276       -5.06416246952402
H           15.65729576859928        7.17511224114520       -4.55704144315287
H           14.17636472384093        6.95660603583759       -5.48893368557591
H           15.06019705078885        7.68980832138056       -2.12573581020708
H           13.94431151876790        7.66925581372122        0.48117907553409
H           12.17246275467176        6.60037106739021        1.81895317160037
H           10.65918840320683        4.94968975632774        0.80025222396417
H           10.88051157761688        4.34082122718485       -1.56455323561520
H           11.76567631613086        3.23994501881125       -6.96985098929896
H           13.07068738235864        2.44022779926277       -7.84418484849323
H           13.22434101899435        4.13944265549157       -7.40008361856646
H           14.60292292880046        1.04917496658418       -6.34551890769333
H           15.96975949938365       -0.09533695956950       -4.13413639583128
H           16.27285194450026        0.16818153275633       -1.70303922308062
H           15.16361113826446        2.00182246932054       -0.49456266249491
H           13.74036612802057        3.60600470762332       -1.68948176514414
H           11.43122548081589        2.15637926002439       -3.50789559133948
H            8.06209543605189       -0.02870340935788       -1.63168410413196
H            7.14153445548529        0.98550344058229       -2.76897937980950
H            7.90648992668485        1.72258090876336       -1.33646004924854
