68
 energy: -11.446557615118 gnorm: 0.000332826965 xtb: 6.5.0 (97a52f5)
C            3.14617753860389        0.54362695649313        0.96131213526000
C            3.55868418283644       -0.02064311495926        2.30497393489218
O            3.86324182120746       -1.39397663655094        2.23203118596251
C            4.18690598001818       -1.87383821198937        3.46588685941810
O            4.22161281333163       -1.20656339430171        4.47531276749346
C            4.52773981317020       -3.33513204582245        3.53270611567952
C            5.99314635554719       -3.56061191860407        3.87934026108532
N            6.98963380714343       -3.02924512728373        2.91991028721234
C            8.35547017513361       -2.98395964033124        3.26320009418821
C            8.80641476165326       -3.53001222089128        4.46723952009549
C           10.14303541020061       -3.52439124413563        4.82821891640507
C           11.08625981011639       -2.93584908048277        3.94507584473877
C           10.63257690699842       -2.38368626548280        2.73734366309024
C            9.30062474499536       -2.39862476109152        2.38728263043473
C            8.88352332779316       -1.78945094005314        1.07889430406160
C            7.37421434795887       -1.52738417851152        0.98952216737081
C            6.58561720320969       -2.71483484333129        1.53448040108301
C           12.43526361995572       -2.93416682504411        4.31213424644454
C           12.83869732249616       -3.49788325000775        5.50788186469318
C           11.87568172043145       -4.07297195547864        6.35181410991317
C           12.30734968559432       -4.65294705643162        7.57320445106753
C           11.39508992489283       -5.24717572246710        8.44917512387922
C           11.79535823384884       -5.81776464475851        9.63258892202782
C           13.16582088716140       -5.79915560783873        9.98285288289644
C           14.09466535444931       -5.20596610263409        9.11433829026573
C           13.67868361718163       -4.63308336441407        7.90807396390284
O           14.63662363182062       -4.06300799672136        7.07953555390535
C           14.24934441229809       -3.49470627850260        5.88427083577561
O           15.05558241491419       -2.98212935247012        5.11991399608629
C           15.54844732150746       -5.16621900168746        9.45815913966564
C           15.96306197845317       -6.31686215508567       10.38462001390101
C           15.02116443683493       -6.41736383854752       11.58388785145837
N           13.59660357075395       -6.37604404503983       11.18825096004291
C           12.63016633273742       -6.87792005382749       12.18496108293478
C           11.38672438887583       -7.46010664113737       11.51713314391995
C           10.77420819255365       -6.45448737248025       10.53104263244889
O           10.53386170246780       -4.09242549712455        6.03207785974868
H            2.90239829987622        1.60570748146610        1.01788626235107
H            2.27389103810196        0.01465765040888        0.57706212931830
H            3.94522375210029        0.41840639769921        0.23071581871711
H            2.76066264918735        0.09279494388933        3.05213777147439
H            4.44712234805325        0.48837210532605        2.70362808332800
H            4.27585123690354       -3.81406136273331        2.58258983518911
H            3.88191717074709       -3.80255275957210        4.28330380097049
H            6.19494097410694       -4.62897027600696        4.00274177164057
H            6.19262583178132       -3.08055831070414        4.84182649456248
H            8.11616729957870       -3.99287470720969        5.14500549083370
H           11.34759142493565       -1.94146356222531        2.06727306899516
H            9.19276559538932       -2.45798683729723        0.26723779024218
H            9.44031317231138       -0.85658775117064        0.92627606215982
H            7.07559326158530       -1.30341069256336       -0.04356797207961
H            7.12450881656651       -0.63471005205645        1.57534446362822
H            6.76680641868704       -3.60656132794495        0.92734477505865
H            5.51304803047279       -2.51486670420495        1.48854697796640
H           13.17257688363219       -2.49555466543936        3.66484128616104
H           10.35496438750928       -5.25201834455630        8.17581647196088
H           15.77016291654604       -4.20360978720557        9.93293886948441
H           16.13207700890822       -5.18209203666206        8.52868485881604
H           15.94169070828675       -7.25987824467992        9.82560528017890
H           17.00162009544993       -6.18941174333192       10.71894478859655
H           15.19638545171140       -5.59105891199644       12.27911029910726
H           15.20086182954465       -7.34177774283429       12.14227138536293
H           12.35922997771162       -6.03964675448011       12.83374364241180
H           13.12252337811196       -7.62107566687673       12.82036805995465
H           10.64878899904389       -7.76433199800961       12.27192280585224
H           11.66159421742697       -8.37562155397286       10.98006858958143
H           10.25194224518298       -5.66478799155257       11.08279125426953
H           10.01018683143181       -6.94423536450967        9.91497177042767
