65
 energy: -12.805481224201 gnorm: 0.000287784166 xtb: 6.5.0 (97a52f5)
C            1.35975984398557        0.42604078429336       -0.06513866712702
C            2.41505961440117        0.34773854848903        1.01909900220532
O            3.20422838345660       -0.81646176558573        0.91662629482645
C            4.07533028034983       -0.88942657456566        1.96450487267534
O            4.13953420854422       -0.08299781238296        2.86588914471053
C            4.98958383265642       -2.08081554649766        1.96667594197092
N            6.35979525251493       -1.71607171196398        2.34285727335262
C            6.92836976405223       -0.55653152946596        1.64507123907270
C            6.81517259566486       -0.70121142031281        0.15484456854899
O            7.03809473658645       -1.77349191887695       -0.36234371171939
O            6.47222545928639        0.43266073022894       -0.52252946502847
C            6.38175583895830        0.16592653109980       -1.90426103689867
C            6.07591701970275        1.41024750827175       -2.71263243349102
C            7.12430158618813       -2.50265126419153        3.23477011451568
C            8.11178794567093       -1.92440862712943        4.03779427262906
C            8.84519576564288       -2.68584104289805        4.91143395408815
C            8.63629958947602       -4.06188090713622        5.01591302943417
C            9.42781711078340       -4.87957460355524        5.95774144682301
C            9.91882353921571       -6.12555185101684        5.60954787526185
C           10.67139443222998       -6.86281092461913        6.51064415089512
C           11.21660146649678       -8.17957020515729        6.11117580985738
C           11.57225207209506       -8.41093739650422        4.78527074663935
C           12.07694579336138       -9.62892444238297        4.41680486501777
C           12.21645853562860      -10.58735146374558        5.38985057730050
C           11.84927192777673      -10.27716399245369        6.67657987873762
N           11.35925354673199       -9.11122838848983        7.06048593187468
N           10.92992362678460       -6.43141348674766        7.75115896345225
C           10.44945193758755       -5.23353819463172        8.10612742804570
C           10.72331107820352       -4.75912683251884        9.48126601504834
C            9.79300274364864       -3.95745279401569       10.13683360778304
C           10.04422164110564       -3.52259494248441       11.41030725818056
C           11.22432307067179       -3.90508178984709       11.99842627057876
C           12.08663407177536       -4.70224512289843       11.28587353042371
N           11.87056501240240       -5.13622340922415       10.05636645735634
C            9.71808417846650       -4.43933668225572        7.23697439157898
C            7.65592064366577       -4.64175018300560        4.20919735462353
C            6.91236229190283       -3.88019101536533        3.34408829734203
H            0.75781473517942        1.33321051823098        0.01113982097041
H            0.68809261827457       -0.43094170522477       -0.00960559669056
H            1.82092428416864        0.40874339039660       -1.05262857644946
H            1.96113432971327        0.34845138626568        2.02001236091252
H            3.09884527316631        1.20696101135698        0.97895302392311
H            5.00825352811753       -2.53797777194199        0.97551502324867
H            4.60513323741626       -2.82043879460079        2.67007887840012
H            7.97949717128625       -0.44399284321855        1.91164075296877
H            6.40322909915131        0.34230721648926        1.97396366699499
H            5.60606038043624       -0.60111223257295       -2.03625367747525
H            7.33414714212548       -0.28776433093819       -2.21233263870390
H            5.13462251552483        1.85613041359159       -2.39136613452980
H            6.00322328811524        1.19947892414508       -3.78096031740616
H            6.85254786469912        2.16169731327278       -2.56873014437158
H            8.26820830540150       -0.86126806721679        3.99329964660235
H            9.60309707749730       -2.22518586645967        5.52112314427922
H            9.71242010851199       -6.51793563433669        4.63138284893304
H           11.47465942650097       -7.62479399542564        4.05739175751919
H           12.36049050215976       -9.82797780866953        3.39618588425520
H           12.61001087813597      -11.56126219019571        5.14897691297145
H           11.95967834025273      -11.02391186658870        7.44859766302106
H            8.86737675302843       -3.70200439916622        9.65172700009238
H            9.33579191764857       -2.90418593139905       11.93693135469419
H           11.46554651994091       -3.59066301403159       13.00060731997852
H           13.01511634689623       -5.01075424432093       11.74253641203379
H            9.36989083724106       -3.47389040908655        7.55341048089430
H            7.47784685000781       -5.70053446304331        4.28386305353920
H            6.17753023173441       -4.34913086575858        2.71410482881513
