65
 energy: -12.716738612092 gnorm: 0.000540534466 xtb: 6.5.0 (97a52f5)
C            1.79331933092711        0.13330411799483        0.56373272169750
C            2.63266178953946       -0.41880916570081       -0.57016674302513
O            3.48928632271405        0.55412488054272       -1.12413349695893
C            4.18919503634613        0.02721145557224       -2.17093558964217
O            4.04534436281715       -1.09387367463342       -2.60588178984143
C            5.19398010285841        0.94614429743631       -2.80416942088238
N            6.49224260294630        0.28834507338846       -3.00060992258478
C            6.99924553625765       -0.50422040256287       -1.87322209811226
C            6.81033199753764        0.19753750816532       -0.55909408448648
O            7.14479809752178        1.35597798003142       -0.44557660212117
O            6.26592117221604       -0.55834306172758        0.43878233008222
C            6.08609584963728        0.22156187317771        1.59946117148841
C            5.53133054504092       -0.58609879149670        2.75501405909003
C            7.19910131333006        0.38435702027017       -4.21924448623506
C            8.08401600599493       -0.62048269518085       -4.62126443647586
C            8.77052371737636       -0.52525112335887       -5.80499255485972
C            8.61280834047836        0.58062895586538       -6.64190989519918
C            9.35483727661851        0.68468951410987       -7.91406397046233
C            9.83700691862620        1.89531789762427       -8.38019224497407
C           10.53879560700343        1.96383615299990       -9.57344765885893
C           11.07617079328639        3.26497250460650      -10.02940016541662
C           11.49954563194411        4.20735901929655       -9.09940166249378
C           11.98748971580751        5.40162770025251       -9.55500996401276
C           12.01847208733805        5.57288887000174      -10.92449188671201
N           11.59172316241951        4.59689077643244      -11.70186475299476
C           11.14529276518808        3.49982436300188      -11.34395324515041
N           10.76038479361585        0.88351084245792      -10.33296097446781
C           10.29320951000100       -0.29532827048986       -9.90240782053013
C           10.52384716359522       -1.49056396617421      -10.74352565529668
C            9.60522256296144       -2.53401680673206      -10.74024916006223
C            9.85710826988454       -3.62873516364552      -11.52134052629929
C           11.02250360306118       -3.60332876753425      -12.26066373780008
N           11.80872364362879       -2.54764087292906      -12.18067198814848
C           11.62837094745984       -1.53416749578898      -11.49540471170073
C            9.60585017934602       -0.42277365371885       -8.70534921515175
C            7.73185544336064        1.58589914873876       -6.23997637795209
C            7.03904391488853        1.48965063104412       -5.06011142634395
H            1.13812776541661       -0.62375261398535        0.99773579558210
H            1.17235934692209        0.95879309635464        0.21514353319948
H            2.42955036055026        0.52443280283619        1.35763389076569
H            2.00387526374710       -0.80431109252693       -1.38460967924795
H            3.26563937396836       -1.25168110165500       -0.23365432535657
H            5.34151596255571        1.82494638380420       -2.17345761287046
H            4.80425644054782        1.28373016480595       -3.76491756156205
H            8.06221725698542       -0.70170221026383       -2.01586359158050
H            6.47713240142301       -1.46278251510347       -1.85932596769698
H            5.41695720402314        1.05068631838112        1.33033483434577
H            7.05946461847194        0.66539910999801        1.85047431570067
H            4.57637449925356       -1.03684509388526        2.48514173164216
H            5.37649401777737        0.02342304325217        3.64677377571270
H            6.20791480273116       -1.40048072819089        3.01472579438822
H            8.20147237038417       -1.49479854530135       -4.00620992796464
H            9.45341408587390       -1.30575177278307       -6.09227121786282
H            9.66504576268147        2.78756651501217       -7.80786872359555
H           11.46691298852248        3.99284812625269       -8.04554863523654
H           12.33329646793859        6.16770992830936       -8.88077226517029
H           12.39175659686882        6.49260310740662      -11.34784629842881
H           10.54775893222163        2.04063055757254      -12.10430999075259
H            8.70478947858238       -2.47332379980648      -10.15458277668168
H            9.18047673425885       -4.46639447165945      -11.56008850568212
H           11.27919525686552       -4.43601146305936      -12.89720714341941
H           12.43567497134947       -0.03692865153257      -11.21966047012851
H            9.26153552605414       -1.38787719179783       -8.38440717658395
H            7.58848477700565        2.44109508300316       -6.87726112095972
H            6.38812062346709        2.29075034321373       -4.75847269778580
