65
 energy: -12.627266727636 gnorm: 0.000444246950 xtb: 6.5.0 (97a52f5)
C            1.55314020811812        0.75010059325316       -0.24316729595032
C            2.37938865364374       -0.36088008553659        0.37155903287974
O            3.23679581790155       -0.97156828434889       -0.56592692346078
C            3.91449305869636       -2.00292964402691        0.01653346742253
O            3.75659942782549       -2.37694304469982        1.15740752717676
C            4.91292094935751       -2.70122238192775       -0.86088106214062
N            6.21051890326913       -2.86165812857042       -0.19264142000426
C            6.72128929055513       -1.68934106727046        0.52892138181804
C            6.55900402133447       -0.42769407402802       -0.26884751696491
O            6.91716666829904       -0.40138835683529       -1.42535891544064
O            6.00718077711209        0.62605482233758        0.40007215690424
C            5.84454808632011        1.72343513290896       -0.46943823154466
C            5.27163503479948        2.93557773620488        0.23566920646371
C            6.92675230988564       -4.07795154405225       -0.23943582137205
C            7.80497668066448       -4.43780534686996        0.78705155912151
C            8.49761000838343       -5.62093248458656        0.74147448149555
C            8.35360440333109       -6.49782647368849       -0.33484576738978
C            9.09834593387169       -7.77196343982113       -0.38363635844512
C            9.61997498043565       -8.26808803204317       -1.56535853898506
C           10.30862233964121       -9.47110891497842       -1.58397923003338
C           10.86256748645032       -9.95442336724911       -2.86867845823434
C           11.52486872323640       -9.08104301127997       -3.71729832345559
C           12.01377578140240       -9.56473328723258       -4.91051237100152
N           11.83285424458168      -10.84207682229665       -5.20633085956131
C           11.19132021572781      -11.63392262565132       -4.36629738219700
C           10.69057486433149      -11.23695021891775       -3.19809486831504
N           10.50530179689434      -10.20520621638661       -0.48098542546311
C           10.00565262922029       -9.73592125973101        0.67001400279536
C           10.18203099871330      -10.53820489047466        1.90211744308286
C            9.10631062019273      -10.76422134912348        2.74680398431035
C            9.30997615888774      -11.50719883120194        3.88841021637073
N           10.52183588005362      -11.97611671870114        4.14005303373763
C           11.51645252984087      -11.72805720324309        3.30734192406869
C           11.39488129752052      -11.01704033537704        2.18847912269920
C            9.30767956974945       -8.54067111312071        0.74767749835789
C            7.48054443592721       -6.13739510172350       -1.36244986875610
C            6.78014269871421       -4.95912576877936       -1.31472841824455
H            0.89460692329066        1.22540499450608        0.48586419746052
H            0.93656431184091        0.36494392741097       -1.05556124596337
H            2.19816053796524        1.51947185949284       -0.66755325945249
H            1.74121678246383       -1.14948850306881        0.79400079570647
H            3.01091721933950        0.01223380403595        1.18999042144078
H            5.06204927533047       -2.13130221856523       -1.78003774204430
H            4.51833398187683       -3.68100088128942       -1.13214744589040
H            7.77909733851214       -1.83088471989284        0.75314930715207
H            6.18429727070805       -1.60157395190400        1.47538987446461
H            5.19390801025760        1.39021998257272       -1.29015884937516
H            6.82774157461717        1.94130790974810       -0.90917356727698
H            4.30249354362696        2.70170030044539        0.67621415772587
H            5.14039511951288        3.78179020058013       -0.44088902754151
H            5.92539678942301        3.25079176217140        1.04912779197336
H            7.91054811583060       -3.79053041555275        1.63943238394102
H            9.17367283698602       -5.87840767754355        1.53825870643791
H            9.48901069910387       -7.71666490255184       -2.47808390893693
H           11.66485376535415       -8.05156248415258       -3.43717368185514
H           12.53797374083423       -8.91060547265960       -5.59034366822769
H           10.71652599873825      -18.12770552369007       -6.73285710891504
H           11.04083613801003      -12.67717856887166       -4.60869212354018
H            8.13225029569413      -10.37770993424406        2.50229623073660
H            8.49163842189398      -11.70549802562718        4.56360551507712
H           17.36474650802439      -14.58844661622326        5.49876258284007
H           12.50852350407476      -12.10522077632113        3.51586494196373
H            8.92141613646451       -8.21167469393191        1.69477267093567
H            7.34890406867910       -6.80647153175735       -2.19504887734301
H            6.13219360336260       -4.69063671182429       -2.13000205284699
