59
 energy: -11.947976707057 gnorm: 0.000838388254 xtb: 6.5.0 (97a52f5)
C            2.20425490295505        1.04032288556899        0.50305000184045
C            3.36724376772184        0.16610460910620        0.92570878496956
O            3.54570565576861       -0.93140842541457        0.06087345870786
C            4.57063739936635       -1.71683646602858        0.49704650042569
O            5.21932944488298       -1.49684270781458        1.49430830396262
C            4.84180539667516       -2.93080011323580       -0.34352525610309
N            6.26235773823567       -3.26960860519672       -0.39822265042386
C            6.99771407588044       -2.94602585838595       -1.55560930825634
O            6.54205392114951       -2.51986646951985       -2.60454556139504
C            8.38688750896132       -3.19984954193336       -1.21332549007781
C            9.70069346515814       -3.14417580612294       -1.70792209498423
C           10.08198122683097       -2.74976461127971       -3.05834544558691
C            9.17258480953632       -2.09005394873086       -3.88777087219239
C            9.51709279975970       -1.68802444433399       -5.15393082227530
C           10.78720830012194       -1.94158013503941       -5.65667239509161
C           11.14490392680661       -1.53090757475638       -6.94807754551885
N           11.44067419799126       -1.19036907776418       -8.01811085516618
C           11.69195636028470       -2.62422437038262       -4.85265283666521
C           11.34485935031183       -3.02343507260329       -3.58537186630902
N           10.52811083770699       -3.51171420033390       -0.64420067654512
C           11.98125982543644       -3.42468334036584       -0.51744569237490
C           12.50974837309247       -2.08416249443860       -0.93298632657298
O           12.02444623371001       -1.07733272690492       -0.46950894137547
O           13.53830595162735       -2.11018473069907       -1.82729814260801
C           13.96590647661987       -0.80318444434580       -2.14272063003801
C           14.75545655647478       -0.15964742735485       -1.02181956305703
C            9.78408733973733       -3.81478808456346        0.51174169542318
O           10.22143510166769       -4.14376607822033        1.60239688056726
C            8.40133321389326       -3.62425091676987        0.12789310218068
C            7.09801659697162       -3.68534772000918        0.63480377829528
C            6.73849584436236       -4.05198737809612        2.00278350264985
C            7.61684613790926       -3.78936132537354        3.05514623687943
C            7.28561653590097       -4.10471367095189        4.35175546044772
C            6.07392885018014       -4.70254837534489        4.62981471386671
C            5.20097357140602       -4.99478621600342        3.60207469798077
C            5.52927825406594       -4.67865669305989        2.30401567671913
H            2.06419064362898        1.89161839028954        1.17121948088879
H            1.27885672929555        0.46398315055284        0.48883779884385
H            2.36073169318564        1.42218485418269       -0.50611947942493
H            3.22211549104963       -0.23904404224093        1.93747632756340
H            4.31328674051984        0.72592562175032        0.93543131720505
H            4.50989812418058       -2.73369839544470       -1.36631847045839
H            4.26435256469239       -3.78220692049151        0.01382952519781
H            8.17180037900589       -1.92620368059446       -3.53073495671384
H            8.80219753547940       -1.17712476524124       -5.77653968108839
H           12.67448626069868       -2.83635744550922       -5.23899246211247
H           12.06049621359062       -3.56238724470959       -2.99371049298090
H           12.44955989769625       -4.22825944848655       -1.08825720372002
H           12.23092922833568       -3.59598942490273        0.53263110320353
H           13.06909811387691       -0.21893968384367       -2.39329875898924
H           14.56678991027608       -0.88156553433754       -3.05932461935137
H           14.14393688004440       -0.08790592344548       -0.12162762593802
H           15.09509502417311        0.84459247012949       -1.28145158548769
H           15.63008817466923       -0.76122222101543       -0.77392772172544
H            8.57287844487118       -3.34573592886618        2.83597083822891
H            7.97549072113450       -3.88819864465783        5.15121563231013
H            5.81391696166291       -4.94945641085777        5.64631558314793
H            4.26086546344691       -5.47646052305290        3.81683687999977
H            4.86367885454100       -4.95266668550815        1.50647874713392
