74
 energy: -14.340515437581 gnorm: 0.000486869668 xtb: 6.5.0 (97a52f5)
C            1.89147544994134        0.22441847719258        2.20325384954035
C            2.71545540370054       -0.55708977666141        1.20050114891379
O            3.61453812702865       -1.44295094508476        1.82749716579842
C            4.33323440500127       -2.12896290340183        0.89359149486098
O            4.19667333098724       -2.00526527991241       -0.30247290361417
C            5.34139978422529       -3.10197664313037        1.43317569277141
N            6.71096841221972       -2.73527650148718        1.07686362456437
C            7.45062843381057       -1.89306849162129        1.92761354124691
O            7.03132616087133       -1.30630868745626        2.91463670924100
C            8.80788955858353       -1.92279402745432        1.41182474195754
C           10.11177486604979       -1.44598147249486        1.63984635626078
C           10.51008306625996       -0.52038336529197        2.68626470936268
C           11.73896446767635        0.14604469548557        2.66352247890713
C           12.11880439211700        0.98515785046894        3.67681757581921
C           11.28399322902730        1.21727480963989        4.77651480323739
N           11.68311961049265        2.04807578994383        5.84279767774310
C           12.83002613741152        2.97598521744771        5.74102252555328
C           14.05575303808070        2.39642632238008        6.45385723189800
C           13.72135381726131        2.07823912141093        7.92224683228818
C           12.47852721920808        1.17468145559180        8.02389226518440
C           11.29614631420808        1.76908694103715        7.24735732280879
C           10.03402570536347        0.58651772856576        4.78135954364412
C            9.66037018548616       -0.24871334183570        3.76372592069525
N           10.92259605157989       -2.07130173160926        0.68669249727536
C           12.38053051956189       -2.15863704319679        0.62368699189106
C           12.98957249304823       -2.50529519914748        1.95121872115802
O           12.56336866863111       -3.44773274202716        2.57978458299488
O           14.01652773636956       -1.70067481292317        2.35080594855974
C           14.50598258223147       -2.09384843543749        3.61521457231294
C           15.33024040894055       -3.36296098255294        3.55866285056122
C           10.17560164710446       -2.91791162652648       -0.15389565519239
O           10.60643352747289       -3.61742104784377       -1.05757144166959
C            8.80839761213093       -2.80241754430037        0.31159127958417
C            7.51683878692771       -3.29262382868679        0.08201877999624
C            7.13032862185855       -4.24560989166251       -0.94928489437913
C            8.06140575949182       -5.13609687012044       -1.48861127140144
C            7.69533700375816       -6.05613356972919       -2.43931248329741
C            6.38590389558523       -6.11384725763117       -2.90468113778118
C            6.01181190761614       -7.05250595588746       -3.87595974505758
N            5.70207777575459       -7.82819898079842       -4.68276150355686
C            5.46059985155027       -5.20710334741065       -2.39881216896307
C            5.82715306172835       -4.29014589011319       -1.44578216397982
H            1.19571013872729        0.91159409978364        1.71895240449586
H            2.53928625632515        0.80484730399774        2.86045925129409
H            1.31570141516327       -0.45193551504748        2.83532758335124
H            3.31107143781937        0.10915413303268        0.56059852920151
H            2.07886758953687       -1.15661078006171        0.53466102828160
H            5.12832416235307       -4.11300487254607        1.08254231483090
H            5.27284028408865       -3.11769475061160        2.52349898542455
H           12.40166601667114       -0.00243440943025        1.83221197853555
H           13.09077223870651        1.44292378389424        3.64383791275474
H           12.53375511833704        3.92049227480774        6.20778560655086
H           13.02864692316341        3.21305860330418        4.69172849991148
H           14.91044376796661        3.08262292690353        6.38323489286327
H           14.36679121408820        1.47656774777515        5.94555755770121
H           13.53749859220179        3.01298191574860        8.46503457401958
H           14.58108863881375        1.61154407093330        8.42213515117666
H           12.20565333619375        1.00398102933327        9.07404665208908
H           12.71516698939715        0.18607158259336        7.61330142014214
H           10.96765750193847        2.70820008521825        7.70220002967486
H           10.43510092685212        1.09623690725624        7.27034479986361
H            9.34045984697349        0.79690152695724        5.57542830084780
H            8.68034085584575       -0.68968752835212        3.76870736697547
H           12.78957626543890       -1.22491592134109        0.23486651716850
H           12.63369898895297       -2.93856552859880       -0.09825906987585
H           13.63919462883654       -2.20422552168004        4.28181607158467
H           15.09889754085053       -1.25233068905742        3.99878231493114
H           14.72550057806371       -4.19134184553336        3.18818678466494
H           15.72285819620790       -3.64275560770457        4.53765229560613
H           16.17170384793459       -3.24452111358262        2.87572343510149
H            9.08611150531007       -5.07422983484553       -1.16727762674460
H            8.42280083071710       -6.73993210184117       -2.84260464982616
H            4.45089222832029       -5.22897351543059       -2.77229356692485
H            5.11909331523752       -3.55436859091223       -1.10796144868963
