70
 energy: -14.872174450385 gnorm: 0.000262463574 xtb: 6.5.0 (97a52f5)
C            1.48874526610023        0.20787972366808        0.79537241205838
C            0.78158764413637        1.34843287522727        0.62762784753416
C            1.30720426131251        2.65670299869007        0.25391732611018
C            0.67418129219810        3.82105750233558        0.70311278273928
C            1.14715461623539        5.06191499272617        0.35570869834140
C            2.26804110627089        5.19983500235549       -0.46368942963758
N            2.77281470213636        6.49424974396331       -0.80587776871593
C            2.63863519021998        7.59015871943125        0.11435523179364
C            2.35689115299576        8.87404714373718       -0.34684553350719
C            2.23361442280190        9.92600688533202        0.53314602226922
C            2.39087500166989        9.71646778825174        1.88963445432353
C            2.67368945445992        8.44967614654720        2.36286873514145
C            2.79773912879632        7.39630857292447        1.48472054113957
C            3.44305574079173        6.70608661144734       -2.05937301530705
C            4.56077077049712        7.53396778605323       -2.13547494328595
C            5.20353589310827        7.73963949739617       -3.33575002007943
C            4.74208269662326        7.12351061945458       -4.48293867937642
C            3.63305638493466        6.30166941853479       -4.42498127126646
C            2.98823832152106        6.09527289437830       -3.22583428670781
C            2.88631875173135        4.04178773387968       -0.93540052096493
C            2.41326176947053        2.80047085234427       -0.59168006982847
C            2.94117148772772        0.07872308445263        0.83498626491327
C            3.55556949823170       -1.08931911940681        0.36988442588808
C            4.92088577206273       -1.22818926231407        0.39618769287811
C            5.73690745003411       -0.21271883236592        0.89612924729906
N            7.16146874121552       -0.34540716077724        0.89067008511935
C            7.81387456729006       -1.10909511860048       -0.13751853469285
C            8.92362330265379       -1.89670754062630        0.15996340425522
C            9.55491395251287       -2.62260894240478       -0.82531372838826
C            9.09122948955625       -2.57500487579246       -2.12588709739672
C            7.99386881903867       -1.79592974236981       -2.43806868318386
C            7.36159959414749       -1.06853642110986       -1.45461017384208
C            7.95904845642198        0.31945284111424        1.88437858469246
C            9.16866051112360        0.91755639094199        1.53844268928670
C            9.93366325331745        1.55749059081632        2.48776536750909
C            9.50653109476690        1.61100973790923        3.80051431396096
C            8.31102116828023        1.01953963657289        4.16065190889733
C            7.54449386706722        0.37861021644605        3.21301456922142
C            5.12632819454130        0.93987034873477        1.39077083448329
C            3.76152521599265        1.07933629535827        1.36852196047996
H            0.93746832065433       -0.70767383981636        0.94275254613112
H           -0.28890979249415        1.29763249186615        0.75118832059009
H           -0.18951359560884        3.73140001712961        1.33958936375845
H            0.64980308335079        5.94878287365287        0.70736390116960
H            2.23071736335228        9.02985837188839       -1.40404246584409
H            2.01419471686759       10.91424837172569        0.16292392112400
H            2.29422071945489       10.54034994692341        2.57785195926615
H            2.79898122939671        8.28573991320801        3.42080537383626
H            3.02951459894416        6.40982760915411        1.84674183036533
H            4.91960228778858        8.00573408344685       -1.23741955936541
H            6.06823713745488        8.38165273233152       -3.38000986628629
H            5.24613551410279        7.28451091950704       -5.42196210329153
H            3.27099800151766        5.82243157018759       -5.32002035238334
H            2.11729069511286        5.46525172608053       -3.17713340240778
H            3.75410635375348        4.13532604873754       -1.56438079787841
H            2.89451460290266        1.91805163900777       -0.97595935155918
H            2.94002642290895       -1.87940600161025       -0.02505697126217
H            5.38019466279960       -2.13131649672884        0.03430526287463
H            9.27702135100508       -1.93324101785658        1.17566977182468
H           10.41195614999705       -3.22898862998857       -0.58120617130079
H            9.58559670309206       -3.14383453331125       -2.89646855802489
H            7.63282620070502       -1.75634805734829       -3.45292614087792
H            6.51383096046829       -0.45087892862748       -1.69473119006409
H            9.49280510191001        0.87786925230164        0.51318592923468
H           10.86658668369976        2.01787847916892        2.20577424602639
H           10.10536875877844        2.11312014496400        4.54282314907185
H            7.97812016904210        1.05928689814144        5.18504962119289
H            6.61753937108792       -0.09243376209421        3.49000821200702
H            5.74468895954661        1.73027281660983        1.77834678009847
H            3.30642926455105        1.96972972612315        1.76618509776821
