88
 energy: -16.210892267474 gnorm: 0.000700250010 xtb: 6.5.0 (97a52f5)
C            1.47480901682645        0.40373256371074        1.01985435863898
C            2.59348764352166        0.57447589283324        0.01263829336290
O            3.30446744952263        1.77814705280753        0.20104902742082
C            4.30307856433134        1.89202801250999       -0.72387756996156
O            4.53627941155109        1.07883148876210       -1.59027320063929
C            5.13390365620629        3.14026534990994       -0.61302442314608
N            6.56689621998831        2.85923482421709       -0.61637230960021
C            7.29954732377682        3.13901951071227       -1.78316729440077
O            6.85930321010698        3.59350181342190       -2.83044673765705
C            8.67433815353072        2.82013990282918       -1.45290527011632
C            9.97409822241178        2.80944043549849       -1.98571316714580
C           10.34915725943376        3.16198553793266       -3.34471226655859
C           11.57222046830529        2.77408903602449       -3.90030454692365
C           11.93313183612809        3.14389306658540       -5.16884603808363
C           11.08417302024611        3.92095320193143       -5.96600751353902
N           11.46260230293868        4.33751927519294       -7.25987714871528
C           12.62758300596381        3.76144939356359       -7.96501914680138
C           13.84053225070938        4.68887789259517       -7.84307952560043
C           13.50000218493024        6.08795610783194       -8.38641982996758
C           12.23757261671195        6.65150328574672       -7.70840294379742
C           11.06953180652788        5.66112577687492       -7.80360931967467
C            9.84095387471202        4.27568111660807       -5.42859219937147
C            9.48552611532841        3.89988809817060       -4.16101061920006
N           10.81307931012155        2.41781552325459       -0.93657862946866
C           12.27120710343886        2.48577121994505       -0.84850066387760
C           12.81767634249815        3.79546966636671       -1.34247828598196
O           12.36112221968794        4.83494245328199       -0.92129057884237
O           13.82836878549772        3.69699822143730       -2.25636329793942
C           14.25030588163737        4.97473454155227       -2.68670948701887
C           15.10372239782000        5.69084738708640       -1.66105971325407
C           10.08503520181484        2.16066254355471        0.23946184236737
O           10.55571909868406        1.82319136723616        1.31741140829094
C            8.69632606613441        2.40803532925399       -0.10297612676915
C            7.39240476038359        2.41438415250458        0.42404104434718
C            7.02297782145086        2.08879676870946        1.79171913254788
C            8.00137235882534        1.96825198492707        2.78441452344803
C            7.68035361252557        1.70006524118895        4.08786939654171
C            6.34959539429940        1.51928380765445        4.48093713111129
N            6.00804952808799        1.24189094560965        5.82138414271592
C            6.95370739520915        1.44940402075053        6.93906342755979
C            7.53247435656486        0.11189440329726        7.40995580850308
C            6.39974380557416       -0.85046368170345        7.80840494707056
C            5.37762963547573       -1.00468761288003        6.66725232030782
C            4.87152434790110        0.36197494227947        6.18764875427798
C            5.36819656693121        1.61106114151341        3.48752550313593
C            5.69760184293943        1.88366821285197        2.18615914678877
H            0.92189973851987       -0.52465165691978        0.86764732388371
H            0.76914083664106        1.23195053268884        0.95356620101542
H            1.86888379496640        0.39797101244047        2.03615612026718
H            2.20919470453491        0.58109558402585       -1.01657640215766
H            3.31935866832685       -0.24778658840163        0.07602080905823
H            4.87303480848182        3.70266003349742        0.28544782719590
H            4.91864574374365        3.78735489652307       -1.46619402350789
H           12.24460859973465        2.17193659262856       -3.31887453094936
H           12.90046791572039        2.86228567956010       -5.54341754364880
H           12.35154247599109        3.63949856364001       -9.01712066439089
H           12.83112588323155        2.75276683679713       -7.59316288585992
H           14.71249356806186        4.26463613437948       -8.35869431734890
H           14.12680999776313        4.77019279410023       -6.78814903452594
H           13.33596084546145        6.02840780839691       -9.46896090712893
H           14.34955532366764        6.77203094216985       -8.25477674560161
H           11.96052775410040        7.62152249688902       -8.14326934392839
H           12.45258232161838        6.85036137697345       -6.65184065493626
H           10.76484126535908        5.52392333066685       -8.84541698519437
H           10.19098899609867        6.03778639179969       -7.27347350381315
H            9.13788036359784        4.81431964998980       -6.03792290848899
H            8.50947904861384        4.14538744093033       -3.78539816639059
H           12.71219835877868        1.64848416451874       -1.39139087746096
H           12.54711271386992        2.35926078866340        0.20072204174592
H           13.34906911763267        5.55201195249488       -2.93530543919784
H           14.79963458718865        4.82840413184333       -3.62666149664678
H           14.54358382308791        5.84127878866023       -0.73781758029437
H           15.43948536198470        6.66719942083080       -2.01447014806434
H           15.98488521980352        5.09918464447420       -1.41238060193584
H            9.03290248289238        2.06325552295511        2.50135941205640
H            8.46670041775287        1.58839950540326        4.81221574989639
H            6.40350679256825        1.92987106894374        7.75408439762356
H            7.73117793474539        2.16123564522616        6.64636346447243
H            8.23593446589434        0.26015289434128        8.24038486090120
H            8.11799782827306       -0.33362832739907        6.59733376136330
H            5.89302045267905       -0.46665218733675        8.70185918480406
H            6.80712499456620       -1.82858834148356        8.09865295983763
H            4.53812904521838       -1.64042595249866        6.97972922609234
H            5.84915712878722       -1.52700019510950        5.82647064035745
H            4.29734695023016        0.85856141486247        6.97547964229992
H            4.19474777943262        0.25118052950885        5.33662130811650
H            4.33373342139960        1.49721287218363        3.75664660227258
H            4.91782902109351        1.90493059254383        1.45045087281284
