58
 energy: -11.446704071818 gnorm: 0.000662084042 xtb: 6.5.0 (97a52f5)
C            2.15457210278654       -0.76239037609728       -0.47150032662385
C            3.36181239887473       -0.80440598613012        0.44260465557515
O            3.57339355349942        0.42455664331502        1.09883596887272
C            4.65920943297325        0.34359209550163        1.92014654986854
O            5.33552282774347       -0.64843644803036        2.07348287474359
C            4.98930715675889        1.59963649931293        2.67147501390048
N            6.39097335365968        1.98893573376473        2.52841487250671
C            7.15163239762168        2.17263422387758        3.69901969937761
O            6.73212979859835        2.15539051406397        4.84538796516784
C            8.51787308717095        2.35336052202849        3.24284774937174
C            9.82630138203837        2.58537639864309        3.69255844965631
C           10.22724425040592        2.79085440409381        5.08158652625649
C           11.44087794450895        3.38823970880704        5.42113270075276
C           11.80957374123371        3.55902721562603        6.73548822434334
C           10.97107322322419        3.14793423213626        7.75033418710546
C            9.75369878348881        2.57859812761951        7.44139423176104
C            9.38519756401900        2.41045167095139        6.12750752302655
N           10.63242417887339        2.56531686008470        2.55426241812473
C           12.08987077957551        2.54650229729200        2.44237102769223
C           12.72376543513523        1.53757614803007        3.35398506788138
O           12.35387753053558        0.38563615074047        3.32549276668945
O           13.70882462577329        2.01896449416589        4.16591003100209
C           14.23917101502667        0.99531012555352        4.98042622105272
C           15.14619630682675        0.05157819627698        4.21891486184536
C            9.87589314363353        2.34562605759728        1.38715500668655
O           10.30794041264448        2.25285688559965        0.24911379785735
C            8.50171195118375        2.23186850923086        1.83913906125202
C            7.18970925585121        2.03104487460217        1.38610663465755
C            6.78080331909096        1.88322152754857       -0.00781053342823
C            7.71170879906252        1.53796819053709       -0.98855162422861
C            7.34012372785302        1.37597133161956       -2.30237787168957
C            6.02774949955192        1.57131541648646       -2.67857427571098
C            5.09410307888392        1.94127987626677       -1.73329353182970
C            5.46574583619771        2.10043299900920       -0.41841106167680
H            1.98817904856754       -1.71420388489061       -0.97854636039246
H            2.27550079501940        0.00910051761652       -1.23197457291152
H            1.25522201515880       -0.51714978310445        0.09377611062046
H            4.28097968211764       -1.03850032556626       -0.11238034692652
H            3.25226768596354       -1.57280578941457        1.22059788267087
H            4.79858858969431        1.43887466875172        3.73510350830547
H            4.34634053646115        2.42280496606758        2.35617702898597
H           12.09868213752518        3.72853897671160        4.64385834217628
H           12.75639997994315        4.01610429097195        6.97246438932243
H           11.26136949492674        3.28068450526569        8.77972558417067
H            9.08596965229421        2.27386507209945        8.23061591479874
H            8.41550728704339        2.01104063357914        5.89199457837561
H           12.48573284898638        3.54608225129650        2.62783196574152
H           12.33744060593678        2.29621152962394        1.40814707512743
H           13.38981428939243        0.46385645889116        5.43228729419282
H           14.77877878227074        1.49104922857787        5.79904168117859
H           14.59624428786053       -0.43334576530019        3.41192329329617
H           15.56194187988848       -0.72727798785970        4.86010748116725
H           15.97446437472561        0.59653834776802        3.76581868516541
H            8.74456112509523        1.43478000991272       -0.70904978193603
H            8.07759083380255        1.10714286981303       -3.04091979812407
H            5.73594376267499        1.44556781333118       -3.70839685908645
H            4.07022171253827        2.10682453214363       -2.02583024838358
H            4.73050669804411        2.40378174425693        0.30318229053476
