98
 energy: -18.658637297419 gnorm: 0.000794985550 xtb: 6.5.0 (97a52f5)
C            7.16797038707284        1.88792358335483        2.01083293135134
C            7.83146611266520        0.71506154469035        2.70298623966261
O            6.98094640235407       -0.40645501679585        2.78490955977542
C            7.61656541494182       -1.43801249450198        3.40976071719030
O            8.74855617421734       -1.40511642938759        3.83500374286500
C            6.80106210760692       -2.69596342506992        3.55609602424383
O            7.34899727830502       -3.80151015648540        2.84389152437381
C            7.23028378241485       -3.77081819991467        1.51309114701653
C            7.63269770604626       -4.94087834947418        0.75768383484154
C            8.01126046611183       -6.12911023894764        1.28397160260438
C            8.13780165881982       -6.43203167167159        2.62354222182354
C            8.10053420786088       -7.27602536340669        3.69096943624581
C            7.52379215932040       -8.52111995383230        3.68615469950843
C            6.76756998897307       -9.08116045805997        2.58477714213754
C            6.98680598239322      -10.41160805370222        2.14661066426217
C            7.82822567559972      -11.47659824138214        2.64729657690262
C            8.72647009284717      -11.43165890134132        3.82616926695028
C            7.65080968097423      -12.56600179986085        1.83562690324105
C            6.72146711963973      -12.22687572061604        0.80093494443023
C            6.22344057578011      -12.99911612087586       -0.24727366504244
C            6.57726885098891      -14.30373747160429       -0.49733214783745
C            6.04640444044329      -15.10704116582528       -1.52550253063972
C            6.49595925082164      -16.44276803764499       -1.67894548953602
C            5.98839560650358      -17.24862036305797       -2.64417170436261
C            4.98345154423316      -16.79041941314282       -3.53993735496839
O            4.51896791859349      -17.67036212485326       -4.46398811830839
C            3.49380305414449      -17.16117108699031       -5.30426912270689
C            3.00331600984001      -18.21842620278212       -6.26024290855859
O            2.18973124711676      -19.02999008556493       -5.88032449717164
O            3.54404904919103      -18.17606861850998       -7.50998548826802
C            3.03059317140525      -19.22504373205914       -8.30051802718968
C            3.59143638831567      -19.21060533154019       -9.70790248515941
C            4.54199992258120      -15.44582000458862       -3.39217254190615
C            5.05336414743069      -14.64219542163603       -2.42556414114893
N            6.37414758454185      -10.91987193772325        1.04327638426302
B            5.52332631247515      -10.09824691212091        0.07183713163964
F            6.22265026874221       -9.99764389595678       -1.11808660605351
F            4.31347058848880      -10.75438561042496       -0.10075153205618
N            5.26438930677910       -8.69053567967628        0.64093602795008
C            5.79650835170454       -8.34181147794892        1.86349695912079
C            5.12989946627936       -7.10562199518547        2.23669123454141
C            5.11669217148147       -6.37469116304810        3.42183298270955
C            4.29302195376219       -5.27549623333349        3.52587599990457
C            3.45804464653599       -4.91323139137767        2.47816079760811
C            3.43819142908087       -5.64240676926523        1.30868848695289
C            4.29371393057077       -6.73078936077885        1.16985806690398
C            4.43869385410216       -7.72271476137967        0.10830570435320
C            3.84951176121181       -7.66165749336985       -1.17719688518402
N            3.79696922910849       -8.82979003849099       -1.95925018501367
C            3.19947587602749       -9.18065798559554       -3.05224833626421
C            2.94334834298723      -10.11702313698897       -4.08927199289738
C            2.39191795995768       -6.37053443515299       -2.62299814671765
C            3.39711929958192       -6.41005985049727       -1.76337226469348
C            4.22330162920088       -5.17324024389297       -1.57549870636769
C            6.43881062121841       -2.64194260103267       -0.49954285284374
C            6.70674750040892       -2.64292415862010        0.77885127643427
H            7.82489430562143        2.75734266866730        1.95285886906168
H            6.26226962473536        2.18305266973935        2.54079805584447
H            6.87344498080572        1.61902666129496        0.99639487584741
H            8.13153941615099        0.97085434436591        3.72876267588141
H            8.74065167362710        0.39715370279020        2.17382932885608
H            5.76924581191822       -2.53748165282402        3.22881323950814
H            6.76879665633690       -2.98569752037094        4.61081022550755
H            7.57189372265355       -4.85565119499468       -0.31296900555075
H            8.18415086366857       -6.94775724475032        0.59577085928149
H            8.57013813807809       -6.93076537209904        4.60262934620082
H            7.66641182227034       -9.14110001220212        4.55638112678105
H            9.38346265858998      -10.56278002358070        3.78373505470204
H            9.35804864792582      -12.31940198273574        3.86793721673184
H            8.15269199333143      -11.39030721867617        4.75213361586816
H            8.13867177395620      -13.51697805376932        1.95529510554068
H            5.50088055043232      -12.51936914470690       -0.87945551065455
H            7.31057424343911      -14.75382962708951        0.14756658421678
H            7.25214067500960      -16.81562392817679       -1.00974805975097
H            6.33217731211313      -18.26198401020826       -2.75109565484733
H            3.89483716535875      -16.31300543834232       -5.86708228130359
H            2.66392645646010      -16.82304204755032       -4.67688198609887
H            1.93619212961314      -19.12522487391900       -8.30317613178326
H            3.26429690807454      -20.16626989111466       -7.78373028365093
H            3.36188660733458      -18.26656766059690      -10.20216796603757
H            3.18941167238209      -20.01968389462195      -10.32003432249316
H            4.67707768217921      -19.30744875663292       -9.68890281720600
H            3.79062968918744      -15.05867667881490       -4.05530962200722
H            4.69342487754849      -13.63343700439988       -2.33671228520272
H            5.73686070723514       -6.67646197185831        4.24569374160357
H            4.28469654390002       -4.70080836385703        4.43717277691032
H            2.80569424912920       -4.06256082663296        2.58679487084642
H            2.74230321831930       -5.40321676088960        0.52543554384475
H            4.47878479978679       -9.52081948828731       -1.64363190304758
H            2.51169518901917      -11.03821562406334       -3.68624362725797
H            3.86534172021186      -10.37918307113098       -4.61729261586104
H            2.24045729979488       -9.70780783257093       -4.82140122612739
H            1.76654513879168       -5.89247635028105       -3.28747909724516
H            4.76822499240447       -4.94259848300778       -2.49039576729789
H            4.95765046771879       -5.29429258067776       -0.78056061867023
H            3.59703812455252       -4.31443446558251       -1.33644921601081
H            6.11895384190677       -2.14730333663458       -1.34523611835950
H            6.57610998892228       -1.71567599454450        1.31611050317356
