74
 energy: -13.957767769924 gnorm: 0.000726295377 xtb: 6.5.0 (97a52f5)
C            3.44223958936423        0.86546989583712       -2.67041742034287
C            4.68985208037101        1.26150987688285       -1.90724082073902
O            4.39518667713299        1.72760418636378       -0.60841189120541
C            5.54224434599682        2.04138478467446        0.05325426414158
O            6.66285275574853        1.90852768589505       -0.38849920403026
C            5.35172547617085        2.59649962212964        1.44451502027089
O            4.66263291820862        3.84155194133022        1.44719367367294
C            5.37368296789146        4.88287298938581        0.99624423592773
C            4.65095454426480        6.14605795999666        0.93648354634479
C            5.09139041663528        7.41589231164447        1.18449934726415
C            6.27656651348503        7.83695840789744        1.88702284893103
C            6.39745296161494        9.25133572138112        2.18210533172062
C            7.01873824827847        9.78647724432606        3.27966957861656
C            7.42374945352462        9.03732883451961        4.45602031924815
C            8.73305508643144        9.13429437636506        4.98764030498447
C            9.81921500879804        9.99705024907262        4.70046539840490
C            9.83953489140302       11.13082856358368        3.74564614624031
C           10.89526862747965        9.58659824936268        5.49221638701236
C           10.50818334352091        8.47514435599217        6.25038335639090
C           11.32930197534988        7.68846320048186        7.18795125072156
N            9.22619874914172        8.22434856196511        5.92212503650158
B            8.43429605192883        7.01778933723296        6.43983863359854
F            9.11561672686307        5.86470370993722        6.08026157093564
F            8.32054041228846        7.14893521549960        7.81654549898703
N            7.02618995471933        6.99555262270369        5.81751215733462
C            6.59262298641106        8.04102087288342        5.03181884890859
C            5.18662218521010        7.78208706202183        4.78219276345260
C            4.18616761235361        8.55296396753103        4.19713592232954
C            2.90308727581387        8.05214199258706        4.13664031907404
C            2.60106023388961        6.80666588112541        4.67058784582239
C            3.57615809447387        6.04174924868540        5.27666234315787
C            4.88146776694423        6.51935433729901        5.32447183934974
C            6.08743358127975        5.99482066722969        5.95664457197486
C            6.25864649485769        4.70264036437470        6.52587529656844
N            7.17934119547936        4.55772353285883        7.57449370098978
C            7.59191846981712        3.58640211420832        8.32614424061284
C            8.43852382204540        3.09192374786586        9.35416161476216
C            5.10841446191322        3.48386266233441        4.77481197548076
C            5.55961829357854        3.54608281637307        6.02199893277560
C            5.44380832123159        2.33448220421548        6.88545629696657
C            7.17718784916909        6.95656707846057        2.36052260150679
C            6.70451983130551        4.79082687869212        0.54623814895398
H            3.67031059321049        0.50948376714696       -3.67638734377854
H            2.76082384641326        1.71204621690880       -2.75781935058978
H            2.90616251946879        0.07448926348867       -2.14531224153319
H            5.23924424161891        2.06163986655962       -2.42280784180173
H            5.38251697617023        0.41483570296733       -1.80229765352782
H            6.31442514223038        2.71953423874602        1.94923575677926
H            4.75553110004265        1.89635595652358        2.03781230013274
H            3.60573594318539        6.03564192275240        0.68705775817744
H            4.40008509540760        8.21433980873991        0.96721734259051
H            5.95278802604191        9.93092134497663        1.47217010034291
H            7.19406511608282       10.85130928995853        3.28823727672260
H            9.55843265801055       10.80238862078387        2.74488788370225
H           10.83590171977137       11.56877577804063        3.68235052973211
H            9.15158106913105       11.91620739290901        4.05886654050821
H           11.87069745128242       10.04121870925234        5.50746468924013
H           11.79450912410343        8.33189870831218        7.93472992208401
H           12.11544899337510        7.15099614497016        6.65779177126184
H           10.71040897062618        6.95658607190026        7.70743476722393
H            4.41660187297967        9.53028430211399        3.81374143365411
H            2.12384026618724        8.63836302337435        3.67836470059116
H            1.58985838188128        6.43803688553584        4.62148383401532
H            3.33559358131278        5.09357935802413        5.72263055363175
H            7.67853247838690        5.43332961368118        7.75192333225340
H            8.30118751172559        3.65663876557105       10.28122302882201
H            9.49101009148076        3.17081194090186        9.06544984774387
H            8.22689917670638        2.03954735380793        9.56641822656450
H            4.93624989400108        3.82762759470507        3.81648623895253
H            6.35169263357838        1.73439177188128        6.82889930040599
H            4.60642766505988        1.71200544776026        6.57006664533979
H            5.27957106893044        2.61282355129971        7.92621910993355
H            8.03532433138041        6.74466379863479        2.89051365742596
H            7.46173420778074        4.14613245469585        0.28200604937093
