98
 energy: -19.052879742734 gnorm: 0.000592903526 xtb: 6.5.0 (97a52f5)
C            1.38354452126209       -0.54366016246479        0.71323448972238
C            2.68252494143830        0.22296684583480        0.85720203334702
O            3.18298064788038        0.66205928235602       -0.38634600745263
C            4.35077286530826        1.34374561846108       -0.21503109682253
O            4.88798021062455        1.55404964956170        0.84904628905402
C            4.99290084852678        1.84496702553614       -1.48351600369252
O            6.00890293975794        0.95920249732082       -1.92805471013351
C            6.58491211876873        1.30431815028020       -3.13641256335362
C            7.56280155829883        0.44133679021972       -3.66127865106772
C            8.16707375858538        0.69816199262519       -4.85905148589039
C            7.83615861273869        1.83772529841423       -5.60829408618790
C            8.47285990210444        2.06400049938249       -6.87447590026339
C            8.27611976738847        3.13710888232016       -7.67863182930715
C            8.90041012387379        3.31331948086731       -8.96483474192126
C            9.19681013094741        2.23109720515822       -9.82602532404307
C            8.62888044135608        0.89191250897813       -9.87521865178729
C            7.65869901572488        0.23573495541898       -9.11839716232291
C            7.29555910593886       -1.04940967252397       -9.45480427601096
C            7.86944523203474       -1.69383014037852      -10.54684834553942
C            8.79864885529276       -1.05231292385231      -11.33229407237151
C            9.17065602350153        0.25059834233492      -11.00806435744130
C           10.06423445253128        1.17220135161173      -11.67149930284398
C           10.71893284177572        0.91922472125165      -12.93823465265518
N           10.13018507142761        0.22809210167687      -13.98619581508891
C           10.99198095944281        0.17526224079679      -15.03961933246253
C           10.72160469965335       -0.45978709401584      -16.34703565408511
C           12.16476167362718        0.81022895846082      -14.66311698304577
C           12.01614497124931        1.27022692326173      -13.35773276408894
C           13.05529106724806        1.97756800095669      -12.57519290766730
N           10.01107549510465        2.31641872734604      -10.93853449089230
B           10.71579303932992        3.63960849478654      -11.27097828120114
F           11.99690566883907        3.61554146497613      -10.73832513702392
F           10.72537357087346        3.84052560838517      -12.64239832639353
N            9.96705163566120        4.79395572561244      -10.59230599757412
C           10.17102716299173        6.10742641050035      -10.88060498711524
C           10.90205792026928        6.59482551545042      -11.99547538074310
C           11.14179226167985        7.90103226215948      -12.25126169036898
C           11.85369045504233        8.40086042251026      -13.39411578437727
C           12.07361457479606        9.78010890487678      -13.52787593765924
C           12.73825111263088       10.28717141420982      -14.60836672811140
C           13.22399457292644        9.44875087428360      -15.62665576391006
O           13.87818378030467       10.04752482180281      -16.68783813191617
C           14.30991311873491        9.15158202987603      -17.70022824340321
C           14.97625615875159        9.89429183575171      -18.83041506543551
O           16.14117535497214       10.20783909541399      -18.73058031624158
O           14.17650176340742       10.17039089430653      -19.89881981370639
C           14.89400315307237       10.89426415008741      -20.87415696356586
C           14.03762560955416       11.24471397551102      -22.07396386966702
C           13.00543577730131        8.06618785147594      -15.49112588537553
C           12.34129656362866        7.56086418326390      -14.40799511411158
C            9.52251390099805        6.82913941159036       -9.84422349705450
C            8.96097294015087        5.93464733991114       -8.96156898724664
C            8.21476973030735        6.31859922845597       -7.73808113035372
C            9.23668198816438        4.61143481049681       -9.45091783634081
C            6.86591830429386        2.70564842708358       -5.08256962708127
C            6.25987652019376        2.45046640023325       -3.88415237357611
H            0.99619212852377       -0.88249182199798        1.67549980847963
H            1.52299147022002       -1.41880524479550        0.07827477914358
H            0.62180192617955        0.07738306521695        0.24151135812457
H            3.46350836080813       -0.39360344507637        1.32330518360866
H            2.55627211128489        1.11155655641083        1.49107581036350
H            5.43901329287822        2.82838909634694       -1.30943293714733
H            4.23331570057699        1.92427584585825       -2.26673939202162
H            7.81990004348310       -0.43586515482449       -3.09444504419784
H            8.90853554630685        0.01892398381069       -5.24329467900054
H            9.17503190737741        1.31829323816331       -7.20356060191218
H            7.65296422487645        3.93231605539972       -7.31798059962269
H            7.18109882643692        0.73779629229882       -8.29810962085392
H            6.55260472947553       -1.56260911128834       -8.86677158327020
H            7.57217619431818       -2.70113072008102      -10.78763494239433
H            9.23715998493523       -1.53666703370989      -12.18546554070760
H            9.16753040775022       -0.10808264310351      -13.98763539557353
H            9.68411063479476       -0.78666478418109      -16.41247288493270
H           11.36049539446640       -1.33075537341945      -16.49380747824595
H           10.90620756921463        0.23943149287089      -17.16280214958601
H           13.04341663961156        0.92331633131646      -15.27495443614893
H           14.05644885800512        1.69875407268921      -12.90443052915827
H           12.96908142308977        1.74168792356145      -11.51429951174191
H           12.94613125421684        3.05674270240238      -12.68468403187477
H           11.27158505039890        5.84948249140456      -12.67259231820557
H           10.77147536950522        8.62900905712771      -11.55205836457355
H           11.70876259274247       10.44289821728718      -12.76209248646015
H           12.90200572659981       11.34582786175768      -14.70446140492610
H           13.43825070425011        8.61110560772024      -18.08075278480736
H           15.01481670075965        8.44025704388180      -17.26043060151525
H           15.76045375893741       10.28350543592201      -21.16320819988165
H           15.28813031280582       11.79607547128428      -20.38531702354453
H           13.65234845194752       10.34155423088987      -22.54757171963569
H           14.59200677258978       11.81060453478749      -22.82449881807583
H           13.17671105252903       11.84015201308052      -21.76939983888515
H           13.36445352207696        7.39361091125331      -16.24828295057655
H           12.18371787721957        6.49970109013450      -14.33827252556980
H            9.48585786288551        7.90043293714076       -9.75238683735930
H            8.24606228225931        7.39810964376244       -7.58775471294126
H            8.64888180177786        5.85372948701650       -6.85261405007605
H            7.16640940030035        6.02872076105471       -7.81187406960020
H            6.58455720698311        3.58364680083610       -5.63528494069151
H            5.52385543212959        3.13874546947190       -3.51116270824219
