74
 energy: -14.398517815745 gnorm: 0.000759931355 xtb: 6.5.0 (97a52f5)
C            1.16760629534851        0.72243490786297        0.05979264271997
C            2.42080722574182        0.90879925812833       -0.77131671729949
O            2.99711242998738       -0.32098324170242       -1.15451349707285
C            4.12064938416905       -0.10895997904456       -1.89751997519371
O            4.56312266096269        0.97567866124072       -2.20326556841696
C            4.84484526040770       -1.35653551753610       -2.33738969692285
O            5.92042680039838       -1.65712253807639       -1.46050655564813
C            6.56405082370036       -2.84647791564523       -1.72556570789317
C            7.58443383173118       -3.24521349159669       -0.83990495089264
C            8.25403386577120       -4.42140789881826       -1.01217629150037
C            7.95466382174057       -5.27703138423017       -2.08574743642524
C            8.65000943927080       -6.52351913100316       -2.21053720961640
C            8.49568766876380       -7.42329267972888       -3.21461278265416
C            9.16480164118651       -8.69837305490761       -3.26886595096033
C            9.44592700004597       -9.46402357802714       -2.11119639940756
C            8.82888182352534       -9.41288320898504       -0.79175722886600
C            7.82525167403667       -8.62151564264959       -0.23694308372404
C            7.42024916277164       -8.85397739807365        1.06006946969133
C            7.98574395038756       -9.87664222731640        1.81345541255720
C            8.94861429341701      -10.69823699279230        1.27184117592762
C            9.36182978028119      -10.47931944121592       -0.03948863663783
C           10.30121873754396      -11.20159939322312       -0.86980377906396
C           10.94105267636235      -12.43654108387443       -0.48972877503983
N           10.32730753103155      -13.41431454890735        0.28534964703981
C           11.17566273957169      -14.46063266366208        0.45699621824867
C           10.87357586313052      -15.70742838295769        1.19190980168649
C           12.36956722354958      -14.15426269985390       -0.18619238298081
C           12.24617984030832      -12.90098995047828       -0.77005366992492
C           13.31303898972480      -12.19697674148313       -1.51689404646683
N           10.28061899153672      -10.55991055436433       -2.07786445385874
B           11.03475266980142      -10.99766524892729       -3.34424134692108
F           12.32075722510179      -10.47534077805589       -3.31043703122303
F           11.03052562947673      -12.38149420841741       -3.43826835520765
N           10.34315499641968      -10.41066941030843       -4.58232829123587
C           10.60153279148138      -10.78010045112924       -5.84665766572452
C           11.46368482496615      -11.89991612384583       -6.26938616940104
C            9.97012315701708       -9.82963664084262       -6.66584528595779
C            9.33718013695089       -8.89003565605456       -5.86385827644702
C            8.57683441689885       -7.72210289084856       -6.37260121108655
C            9.56500161893738       -9.26960451182127       -4.51041187338635
C            6.94785079171792       -4.87512231120655       -2.98083814038765
C            6.27377953372553       -3.69957798710455       -2.80940289584233
H            0.72620509336572        1.67478944552406        0.35835647343802
H            1.38722601622884        0.15445542751955        0.96405213056234
H            0.41635400633562        0.16202708043446       -0.49705344750172
H            3.18770668235518        1.46998543521603       -0.21979016609221
H            2.21238079176614        1.47355831120841       -1.69037709758955
H            5.24397313402712       -1.21819883672783       -3.34629215178573
H            4.14754978519070       -2.19938509755010       -2.33674157992451
H            7.81572402007325       -2.59891202163111       -0.01197616940727
H            9.02222002665898       -4.70954128123029       -0.31525981655949
H            9.35807627144845       -6.76206819980863       -1.43627500944554
H            7.87157735965008       -7.15347519732464       -4.04489543814204
H            7.35437461308183       -7.85416368338687       -0.82189168981068
H            6.65213646570244       -8.23632259774070        1.49552736785567
H            7.65786015302335      -10.03551284709492        2.82747193058408
H            9.38346300075815      -11.49775993747834        1.84306379281015
H            9.35382696708004      -13.37849516160917        0.58622557004615
H            9.85578637857453      -15.69125221195023        1.58116065514147
H           11.55469816570220      -15.83590670452768        2.03331616215382
H           10.97115680226577      -16.57514514619155        0.53923388705382
H           13.24271095023963      -14.78307801714495       -0.22203626731343
H           14.30149241043401      -12.54357261353326       -1.21448492182182
H           13.26286072123428      -11.12172323775137       -1.34387084669818
H           13.20393440445644      -12.36661198912013       -2.58813742652405
H           11.35720363196396      -12.74176039595637       -5.58543857958187
H           12.51108671228036      -11.59829838605434       -6.27185994234814
H           11.20249740691631      -12.24120244943912       -7.27120417451256
H            9.99790463600348       -9.81796769244025       -7.74197666429328
H            8.65315052451525       -7.65298564872324       -7.45811840234674
H            8.96459005895195       -6.79136522490574       -5.95779556789752
H            7.51871159068979       -7.80511178383942       -6.12351147179282
H            6.69298795393998       -5.51013652598848       -3.80999133937706
H            5.51001404617231       -3.42367807923569       -3.51308282740723
