65
 energy: -13.020373583148 gnorm: 0.000545905840 xtb: 6.5.0 (97a52f5)
C            1.42699326903798        0.77825704689292       -0.25496364577407
C            2.67432363582529        0.39088111064351       -1.02305926952242
O            3.14411282817039       -0.89048873095380       -0.66657749460007
C            4.26255738051104       -1.20101411026157       -1.38067610144156
O            4.77811512625397       -0.49038460777010       -2.21375543063601
C            4.87947953159328       -2.53962255490940       -1.06421691868846
O            5.97146394961439       -2.39800803606684       -0.16860847424795
C            6.57803907742773       -3.58105232149819        0.19187978224118
C            7.66480219044472       -3.50768318154664        1.08496606113484
C            8.31885698011903       -4.63067431964499        1.50031565373922
C            7.93275322752418       -5.90445847424241        1.05024745391900
C            8.63445082081304       -7.06188429423694        1.51987717136994
C            8.39136414289271       -8.34488477589745        1.14982255426520
C            9.10393563302216       -9.49223134457594        1.66093889959996
C            9.53483806799878       -9.59619307250244        3.00292456513743
C            9.19436882663264       -8.78768429655114        4.16530428973474
C            8.24862647882655       -7.78653700627413        4.37646511006663
C            8.10814120816175       -7.24312625890899        5.63480020500061
C            8.87512811020611       -7.70182954074834        6.69891193658085
C            9.78712538153416       -8.71795270451076        6.52205748090549
C            9.95704875770500       -9.26669589055553        5.25267985849286
C           10.73881628366907      -10.39522798128656        4.79131985077857
C           11.68148504813981      -11.15228767006183        5.55649274131250
C           12.21715399363869      -12.40883191046685        5.24226637614498
C           13.11399986062851      -12.75476485158292        6.23494806590722
C           13.14554206313104      -11.71677871713460        7.15331388667705
N           12.28051182103594      -10.75472512312090        6.74925467568025
N           10.39827419264905      -10.55882123248896        3.47856919233570
B           10.86123406456946      -11.74160893346610        2.61177878807407
F           12.24456821626065      -11.73067724275608        2.51371986556639
F           10.38720644671652      -12.92614192157914        3.15807881425735
N           10.27404121246622      -11.60914223738067        1.20451159644755
C           10.52942883800885      -12.47433115777788        0.22075072977669
C            9.88028348337504      -11.98608276494865       -0.91742258687812
C            9.23226094325011      -10.80199488032873       -0.58830748912226
C            8.45112630719179       -9.97397180945556       -1.53995057478519
C            9.47202530076536      -10.56024396330205        0.79560506318937
C            6.84922519204548       -5.98151003226494        0.15798721354706
C            6.19295102290735       -4.85911993328119       -0.26017340783211
H            1.06612198400598        1.77107750128901       -0.52874420255425
H            1.62012625865704        0.77275938938369        0.81794296117069
H            0.62488108593313        0.06366002216200       -0.44053225699256
H            3.49414009374513        1.09985762656540       -0.84201744753108
H            2.49273585153577        0.38252082205262       -2.10675301028247
H            5.24202063364011       -3.00554256415582       -1.98507907764280
H            4.12996415253090       -3.18696069761133       -0.59954246209406
H            7.96591889654338       -2.53628344988965        1.43505100151499
H            9.14453871723217       -4.54853963444226        2.18606102610941
H            9.43801674298490       -6.89071296000664        2.21442989909120
H            7.66057917058996       -8.52067065829925        0.38268989362796
H            7.60903131457564       -7.46876960003824        3.57428982424961
H            7.38327306724184       -6.46307779570624        5.79968466949754
H            8.73788204280133       -7.27290597022881        7.67787787914764
H           10.32840308355448       -9.11537720916651        7.35895770565302
H           11.96991185094995      -12.99337833496717        4.37374185230937
H           13.69699610603195      -13.66107640181822        6.27853789824401
H           13.76266612851507      -11.66496630491220        8.03778972103863
H           12.18164137804726       -9.83206832440467        7.17152348143842
H           11.13734507153976      -13.35954304263494        0.31480733205949
H            9.89133849743406      -12.44182682206947       -1.89373608601953
H            8.55821798041012      -10.34852652737608       -2.55831920052701
H            8.79662014158246       -8.93998975927881       -1.53444306185863
H            7.38940481881601       -9.99169789516376       -1.29318063880368
H            6.52434771383855       -6.94207780841093       -0.19876892279501
H            5.36949830246910       -4.95589387404378       -0.94365526637528
