71
 energy: -13.958599856954 gnorm: 0.000346110229 xtb: 6.5.0 (97a52f5)
C            6.11033503421036        0.77702279827858        0.35760088786667
C            6.23837150117027       -0.69077604030207        0.71176926047578
O            6.60047272676673       -1.47957936243235       -0.40079605790727
C            6.64316317953490       -2.79715899067426       -0.05533497464344
O            6.41883912727254       -3.23840685473883        1.04972730747864
C            6.98182856297786       -3.74571223771375       -1.17802779619271
O            5.80848129525632       -4.16421499707913       -1.85866588396639
C            6.03240335952489       -4.98240466668656       -2.94838013973796
C            4.91312070255109       -5.36313364667883       -3.71110963167834
C            5.04360077969612       -6.15227207425997       -4.81730810422685
C            6.30153657035380       -6.61970750129265       -5.23106130329794
C            6.40251858201840       -7.42445951278171       -6.41368834562823
C            7.54240074102439       -7.97250083594649       -6.89813628757531
C            7.62040956819734       -8.72218757855658       -8.09874592623621
N            8.74541702054504       -9.31591571933956       -8.57205572102135
C            8.53168691284205       -9.95084584241335       -9.76877356765282
C            9.54287238352319      -10.59709721061290      -10.47110934175958
C           10.81099501395370      -10.58740980611118       -9.94346278276539
C           12.04240861314335      -11.11487868514363      -10.49949023278355
C           12.30434533336495      -11.82608921585607      -11.66463833141744
C           13.59154341582019      -12.25813146090136      -11.90005073282907
C           14.60747877212735      -12.00563867477224      -10.98331501189615
C           14.36077470709141      -11.30078971999977       -9.82560516788057
C           13.07439673643739      -10.82078539573170       -9.58600744199391
C           12.49360015909963      -10.08544741655353       -8.47222167153758
C           13.15441659566808       -9.55837664776970       -7.30196255433346
N           12.54567094287189       -9.49505668276414       -6.06474545611671
C           13.40293322538818       -8.97166540491673       -5.14730284405096
C           13.09914942546607       -8.72252925580451       -3.72232467791065
C           14.58988932692202       -8.68032714611616       -5.80423356609757
C           14.45053451172156       -9.02548990308412       -7.14756606213593
C           15.45922003383212       -8.74805379278260       -8.20062068129520
N           11.16445053278668      -10.01562638086760       -8.72894964699666
B           10.08367642456573       -9.38925949038721       -7.81749423428853
F            9.88582424304280      -10.19188790880864       -6.69908212219462
F           10.46453866738674       -8.10374678341620       -7.46226537095814
C            7.14300920331200       -9.74944237570628      -10.07747628583080
C            6.44165018799787      -10.22358830563693      -11.29410478902886
C            6.60318662426655       -8.99860721488764       -9.06280370903209
C            7.41990432681398       -6.25336775497197       -4.46321769520393
C            7.29225441056307       -5.45945124379293       -3.35772805556741
H            5.82844268052166        1.38549663329032        1.21853282222764
H            5.35758808628742        0.92025909202385       -0.41797164198996
H            7.05227677176135        1.16159175918920       -0.03400484835526
H            5.29290815294884       -1.09197151722417        1.10259508438760
H            6.99853024926117       -0.85218970392337        1.48850192299267
H            7.48669879289749       -4.62866623844682       -0.77593212174049
H            7.64044383424504       -3.24594231007983       -1.89436636658655
H            3.94639766865604       -5.00664265201283       -3.40265378615786
H            4.17294159776429       -6.42349943391496       -5.38937382634041
H            5.49251572122164       -7.59567209655063       -6.96039833114566
H            8.46547831188556       -7.83840133207655       -6.36700989095597
H            9.34401168046011      -11.05875362299245      -11.41954230800271
H           11.50899786765699      -12.03723395801720      -12.35712700636384
H           13.81125939124833      -12.81094848666315      -12.79845889524225
H           15.60084625188479      -12.37476644159104      -11.17844041510573
H           15.13451984303660      -11.15503091250006       -9.09479520291998
H           11.56136420708527       -9.72946944942863       -5.96195037606273
H           12.13639052499036       -9.15495704774189       -3.45082615588215
H           13.05883998079438       -7.65281840678059       -3.51648152345216
H           13.86065125229326       -9.16491485641636       -3.07977848712503
H           15.45940406773544       -8.22829981838451       -5.35825396241288
H           15.86647865427240       -7.74313658304743       -8.08549542250100
H           15.01907658902627       -8.80881452508747       -9.19593316787807
H           16.29050190405752       -9.45083689981023       -8.14197629552125
H            6.72070503838378      -11.25095938824219      -11.52904471470963
H            6.69125619901116       -9.59955282922184      -12.15252565530824
H            5.36025153453703      -10.19410207629465      -11.15848985423290
H            5.58154671164109       -8.66539679398536       -9.01285466299767
H            8.39654946563654       -6.59527513852113       -4.75519465953869
H            8.16861748778898       -5.19743802549812       -2.79381550129884
