71
 energy: -13.958773111210 gnorm: 0.000775966495 xtb: 6.5.0 (97a52f5)
C            1.50759604829974        0.06715027194896       -0.82296597489017
C            3.00727852002093        0.25408964141044       -0.71482977065051
O            3.62399960637300        0.37389167078065       -1.97823863108870
C            4.97370755984160        0.50515913244790       -1.83775018346092
O            5.56742346184575        0.52611389199085       -0.78293972956751
C            5.74773930839312        0.61531319384618       -3.12691817659867
O            6.27881275143573       -0.64366996916435       -3.51277994297284
C            6.96328394053417       -0.63832605514503       -4.71211024548364
C            7.48864387082445       -1.86281283027660       -5.16413962511312
C            8.16907853238280       -1.95086825380087       -6.34458940634994
C            8.37208142596926       -0.81932238094641       -7.15117357216329
C            9.08019775279127       -0.94954381362230       -8.39160057322327
C            9.34785599840225        0.06369818498984       -9.24933413332742
C           10.03039877259683       -0.08351327197806      -10.48274689954785
C           10.53431718456237       -1.26239057770675      -11.11233655490902
C           11.12030547725221       -0.91429743406429      -12.30464245098162
C           11.75610863861328       -1.83071800551105      -13.28104882072306
C           10.98957861993438        0.50937883486817      -12.44691085303334
N           10.33011100311894        0.93812571231747      -11.32385391635412
B           10.07008549151661        2.42313630082053      -11.02244529318491
F           10.88660362992710        2.77946678818197       -9.95419624058655
F            8.72746692903354        2.58502063313778      -10.71336390551274
N           10.42173794593454        3.27673950137251      -12.26241371320050
C           10.16495068345407        4.59708977299418      -12.42950121233046
C            9.47791518472199        5.44742082871178      -11.48653221987161
N            9.54950506960392        5.25834288986241      -10.12110308812376
C            8.81474848430445        6.20582798988921       -9.47826694491456
C            8.62317904626347        6.30704368173242       -8.01604423225766
C            8.24961204839848        7.02347121520515      -10.44644677016395
C            8.64004778853214        6.56065560766827      -11.70194215050386
C            8.14371015301120        7.09793242105579      -12.99341227630559
C           10.75463912885086        4.95614979568471      -13.71069474701991
C           10.91640917122709        6.17907755926776      -14.35928454112075
C           11.55907276315844        6.21063256715794      -15.57744444426670
C           12.06099839629175        5.04797588253004      -16.15416798587428
C           11.94512459966333        3.83390375230997      -15.51249124414321
C           11.29945349096833        3.78890886808660      -14.28244664329703
C           11.07332018805537        2.70408318456280      -13.34629824536384
C           11.38083131943423        1.37049566721357      -13.46630089865704
C            7.85463695005446        0.40637185550658       -6.69901518947168
C            7.17231482977173        0.49669337766142       -5.51822183070233
H            1.03211141810513       -0.02397627575446        0.15501881004776
H            1.27284312490595       -0.82868464548252       -1.39788791865325
H            1.05177922668585        0.91016971637300       -1.34232377051879
H            3.48050334544636       -0.59342157347232       -0.20005052633427
H            3.25909710350737        1.15628052565217       -0.14072915047649
H            6.57456368300056        1.32041683259388       -3.00274731119431
H            5.08493605090636        0.97080087159750       -3.92112431383388
H            7.33522802950076       -2.73478680547326       -4.55348656782567
H            8.55826214173932       -2.90006587915507       -6.67062609160161
H            9.42008916765223       -1.93488621766758       -8.65564862057686
H            9.02628751606873        1.05956063729504       -9.01096311940833
H           10.46513059937861       -2.26243597978628      -10.72197664600181
H           11.78621137705646       -2.85152228037563      -12.89920821616150
H           12.78005949414345       -1.52196617062290      -13.49301743506973
H           11.20325124779785       -1.83942062359006      -14.22072697620380
H           10.01104600648224        4.43628389966476       -9.73930280309964
H            9.28432465595245        5.61802928870289       -7.49088303946073
H            7.59635035441553        6.06410233777934       -7.74235069333372
H            8.83994360960668        7.31598538466137       -7.66444634051577
H            7.59276616603884        7.85576037122967      -10.25915669623725
H            7.06639159985054        7.26123543226692      -12.95174927657264
H            8.33565145359606        6.40330914262116      -13.81106751450531
H            8.61411733210064        8.05308464053691      -13.22769512219453
H           10.57893492719619        7.08538395399357      -13.89137343331623
H           11.68286659668216        7.15151499143706      -16.08783829569939
H           12.55899942190317        5.10001458702867      -17.10825572319790
H           12.35098408575594        2.93476400128764      -15.94084299226873
H           11.88040539650537        0.99587466799052      -14.33943876125989
H            7.99254985020752        1.29102327639412       -7.29406922086520
H            6.79067325246786        1.45049380927971       -5.20336895634834
