62
 energy: -12.294840673602 gnorm: 0.000695133125 xtb: 6.5.0 (97a52f5)
C            1.66855951392826       -0.15553848272824        1.67947034511900
C            2.78098483733101       -0.82057478735636        0.89412812182347
O            3.55628143631751       -1.68894137363187        1.69247013726248
C            4.53284098045163       -2.27850051546076        0.94360374839248
O            4.71598998041350       -2.09544737589405       -0.23957460052456
C            5.44162743321506       -3.21950924728635        1.69522881743475
O            6.68272600172200       -2.59964782522213        1.99689823461468
C            7.61844615900002       -3.43900273230398        2.61592949484800
C            8.90356422150064       -2.93398174463061        2.82213098290695
C            9.88287102368916       -3.69761794802389        3.41132589962118
C            9.62049436104931       -4.99544066172885        3.82186343178592
C           10.70433176944434       -5.80913628043746        4.49977438874849
C           11.00508993438858       -5.34736925481342        5.90773297676366
C           12.15170704637785       -5.66335348295775        6.60917517545698
C           13.29258719135925       -6.45521780035512        6.10110913077138
N           12.06451451055035       -5.14039736524088        7.88206271681132
C           10.85107842798684       -4.49237665083013        8.01954260801537
C           10.26694037620873       -3.83468253928514        9.11028507587658
C            9.01331795770416       -3.30722716780460        8.96259792178564
C            8.31923455214023       -3.41826774083834        7.74700427402792
C            8.87500293948228       -4.05499628232830        6.67259275120663
C           10.16445364042628       -4.60480899859303        6.79500498084466
C           10.43220198368924       -7.29397066605056        4.43572626478833
C           10.78010501929563       -8.13338406248498        3.39594651198257
C           11.53550718311198       -7.75246791922577        2.18335754699992
N           10.29464072733637       -9.39847123413082        3.65489485501506
C            9.60987945183532       -9.38093172009986        4.85648939999904
C            8.91378434406471      -10.38030989127456        5.54965787213985
C            8.29843730566008      -10.05368477613896        6.72749263258083
C            8.35744968939412       -8.74695996425643        7.23920055405398
C            9.03377249643936       -7.76050440535581        6.57755318119667
C            9.67710679571851       -8.07036893511500        5.36619605306413
C            8.34233575716969       -5.49982645128611        3.63100072825827
C            7.35811686507029       -4.74326046592572        3.04076392851499
H            1.07109374975026        0.51532366279956        1.05974406789126
H            2.07599620143670        0.42431125791009        2.50799063686665
H            1.00042373892983       -0.90288931221952        2.10834511072998
H            3.46465847689416       -0.07726023486547        0.46117827606445
H            2.38203822902313       -1.41070857145310        0.05764986429785
H            5.63225768226978       -4.10919836542018        1.08800525115397
H            4.96403525170196       -3.52101543582119        2.63205768733261
H            9.11177182726378       -1.92750745911362        2.50538218944444
H           10.86623647722465       -3.28862842120212        3.56819795663281
H           11.62390245738944       -5.63598332157173        3.92028596280430
H           12.95998876884374       -7.43049085569575        5.74497451027677
H           14.03105761873837       -6.61910318038820        6.88557870439506
H           13.78613591206750       -5.94104694930275        5.27625163134365
H           12.76115316556485       -5.23782177364076        8.61910242403259
H           10.80428601631844       -3.75954409673202       10.03855052337581
H            8.54846376076656       -2.79937338888094        9.79157328375035
H            7.33289676508322       -2.99307033459532        7.66175783614227
H            8.34355577112147       -4.13852227520800        5.74339603275584
H           11.07002264695271       -6.90029510443088        1.68748578814742
H           11.56808616938293       -8.57728385535417        1.47184229744771
H           12.56200597510329       -7.48337092415829        2.43299332178454
H           10.39123656709193      -10.21260059580310        3.05005378904577
H            8.86970477762079      -11.37674770537457        5.14813469648401
H            7.75717188003969      -10.80955527579745        7.27231881581175
H            7.86169245343169       -8.52079441922089        8.16870508780293
H            9.08313293298487       -6.76118454942493        6.96652320671862
H            8.12281662013883       -6.50050117872841        3.95845090815946
H            6.37744619324515       -5.16300058723865        2.91110399713140
