62
 energy: -12.292075228678 gnorm: 0.000842267760 xtb: 6.5.0 (97a52f5)
C            0.64761868201934       -2.66098543462135       -2.13003027896019
C            1.90711331495227       -2.11517436892906       -1.48881505813317
O            3.07710452017111       -2.58320011074867       -2.12474225296360
C            4.18227509244020       -1.99775221930614       -1.58159332304708
O            4.18853392144541       -1.25173433832343       -0.62646580972036
C            5.47487565946071       -2.32590736907187       -2.28899064458732
O            5.48767157268218       -1.71625721888881       -3.57299844758404
C            6.50145440026810       -2.12979366754025       -4.44406045558187
C            7.57570637140209       -2.92183013052916       -4.02959036844069
C            8.54721010820239       -3.32128371272987       -4.91480049029049
C            8.47332744126867       -2.94236555077412       -6.23740758526804
C            7.42601427356955       -2.15447356231905       -6.66618326993883
C            6.44054561829187       -1.72734739897773       -5.79530101329540
C            5.30768561258351       -0.88249712627815       -6.35414888893502
C            4.26941238355785       -1.74351762062540       -7.03441569726263
C            3.82999872806515       -1.60526518413077       -8.33709648305216
C            4.29567037752115       -0.60089163032497       -9.31748513949720
N            2.86348486624965       -2.55640607311782       -8.59095231549725
C            2.66849871554331       -3.31896311212471       -7.45414523200818
C            1.78920320153061       -4.37358584692774       -7.17281875797012
C            1.78218233327535       -4.90231542986335       -5.91047819784751
C            2.62924325033997       -4.39946908201550       -4.90973154484874
C            3.49654919142019       -3.37640346766334       -5.17013418686896
C            3.53838287008646       -2.82819447358371       -6.46220185051437
C            4.73414515420143        0.12910140088905       -5.38140571340410
C            5.48440236512680        1.06166124137817       -4.68943263507427
C            6.95171570154214        1.23613951521190       -4.75823582194171
N            4.65614033450685        1.80071595916968       -3.87312158902017
C            3.35770210599110        1.35792070259949       -4.03323016333565
C            2.15931280863369        1.76890469094061       -3.43380229300435
C            0.99391243687283        1.16132650955938       -3.81187992664853
C            0.99037394621353        0.15082638094048       -4.78577402455321
C            2.15106215089434       -0.26657384663508       -5.37386303468425
C            3.36969551301820        0.32650433514450       -4.99287127204061
H           -0.25651848140531       -2.28281863483373       -1.64975415745002
H            0.62773490601690       -3.74969780520719       -2.07651332629954
H            0.60665848745038       -2.39063399848689       -3.18543865670535
H            1.97306536393595       -2.39381654861097       -0.42840498335752
H            1.93015428776090       -1.01755598211380       -1.53174559649180
H            5.56748486750405       -3.40971390520675       -2.40256050818639
H            6.32496491807146       -1.95035312189693       -1.71274003520766
H            7.65157714454979       -3.21591300504773       -2.99887650429366
H            9.36701640061908       -3.93311181373195       -4.57515167861738
H            9.23125246012043       -3.26067084095582       -6.93415413867245
H            7.36630939846628       -1.86615887403174       -7.70176774603022
H            5.76227958181966       -0.27296877560322       -7.15111420022625
H            4.15462641762917        0.41053856388880       -8.93559219627853
H            3.74107117464771       -0.68588881301090      -10.25176260071299
H            5.35345271146262       -0.73770102400236       -9.54300068641441
H            2.36207538090743       -2.67998567440935       -9.46930388829299
H            1.13267100614336       -4.74173698989781       -7.94065015513045
H            1.10842223541086       -5.70980063623738       -5.67563102906007
H            2.58361278690831       -4.81593699506619       -3.91713890704160
H            4.10958620980555       -2.95024049064613       -4.39957947198173
H            7.45876967184005        0.45697161329039       -4.18931550042944
H            7.24731042508605        2.20059439016698       -4.34584208397203
H            7.30443610458741        1.18962254556611       -5.78859825228121
H            4.95096772817007        2.52275406016201       -3.21735030945631
H            2.17384592189901        2.54829163934302       -2.69316394282524
H            0.06329229391874        1.46584767746064       -3.36198394404262
H            0.05549728064778       -0.30139912830691       -5.07333332359060
H            2.13715829258797       -1.02501019224158       -6.13221841115510
