43
 energy: -8.518180348951 gnorm: 0.000292934539 xtb: 6.5.0 (97a52f5)
C            1.56085018819400        0.28560073133453       -0.48699707873738
C            3.05133786941747        0.55685310867933       -0.51835421570497
O            3.58663656683376        0.41969844999906       -1.81520430103957
C            4.93987522869177        0.59165130904967       -1.79203741014766
O            5.58683024573597        0.83289227781081       -0.79544348521938
C            5.63162921162089        0.44188352906888       -3.10430805028583
S            5.96686153617833       -1.25707075509042       -3.41740270715059
C            6.87533096601124       -1.05673987507860       -4.92850203117050
N            7.09316656819462        0.16531441202991       -5.39594284878847
C            7.77418944098353        0.27299471858783       -6.54404952203901
C            7.97965278590031        1.64782771717246       -7.06016073209298
C            8.59827572223797        2.60823497461697       -6.26245600656808
C            8.77851009734361        3.88816676618986       -6.71880887675434
C            8.34035967362847        4.27277461013176       -7.99023376280990
O            8.57066679482399        5.59438331186857       -8.37295035290212
C            8.11405114142860        5.93355437557640       -9.66074966553721
C            7.70328760849812        3.31016272615497       -8.78066426801313
C            7.52483935649248        2.02939623688407       -8.32263070134448
C            8.28814310447965       -0.83598700415106       -7.23609723110932
C            9.08757035024282       -0.66740529266776       -8.48144386104617
C            8.04170958640543       -2.11030024282886       -6.73817576960390
C            8.51459353192794       -3.25197475165604       -7.40334402453364
N            8.91338655775588       -4.18414666180221       -7.96842724425775
C            7.31495872672150       -2.22020233916991       -5.54895805182959
C            7.02648115088942       -3.45858780164289       -4.95642291202566
N            6.76626611194120       -4.45571953968694       -4.42228239277270
H            1.14282679724136        0.39460601283534        0.51526759180704
H            1.34971741700373       -0.72596796046592       -0.83500222389018
H            1.03394821235234        0.97061697930877       -1.15180869175894
H            3.60194322706114       -0.13568217634539        0.13431772473906
H            3.28599809981567        1.57557683193086       -0.17854849407283
H            6.57272935161825        0.99050670707837       -3.09608621781560
H            5.01164401195069        0.83589723209569       -3.90915274426170
H            8.93562289729010        2.32639520957804       -5.27995174750369
H            9.26277857145554        4.62737257044271       -6.10507476016011
H            8.35795645933024        6.98171993321560       -9.84158170421449
H            7.03171756106726        5.80490131568014       -9.71391032779699
H            8.61875859828519        5.31635621604974      -10.40584193673501
H            7.34214187003367        3.57488807518402       -9.75768417353426
H            7.01016866651129        1.30549615318877       -8.93055049069837
H            9.56039318000462        0.31381727548773       -8.52288420594807
H            8.45915119477537       -0.78387830911861       -9.36455671709825
H            9.88228376163864       -1.41172705764328       -8.53506337757283
