39
 energy: -7.929097308482 gnorm: 0.000524110145 xtb: 6.5.0 (97a52f5)
C            1.47528697270175        0.36733936772541       -0.76974970694459
C            2.74840309486194        0.54593479053368        0.03251045642533
O            3.38352253500718        1.77214101914389       -0.25007713400562
C            4.50803943088735        1.91259596396898        0.51100013042387
O            4.89825615373360        1.09964932732108        1.32075256427631
C            5.28129419436178        3.16573446490544        0.28044644418935
S            6.71003536199450        2.82605588157983       -0.69003625649624
C            7.20128533954157        4.50074233173354       -1.00798383827433
N            6.45840630084306        5.49382233501103       -0.53513222560226
C            6.86025026378449        6.74076475072176       -0.80505203285701
C            5.99881792927904        7.83872674214395       -0.29792902980221
C            5.80583136494153        8.00311945184493        1.07041550684612
C            4.99512402308025        9.00806885775793        1.54814235986795
C            4.35807833900460        9.85985839042822        0.66910077167576
C            4.52961430053151        9.70177730734186       -0.69087768435683
C            5.33987106721431        8.69875148903530       -1.17302014445081
C            8.03077953876574        7.03253695329045       -1.52160524835073
C            8.45331026617904        8.44060276002129       -1.75993508682525
C            8.79085010345907        5.98106953978397       -2.02115745001211
C            9.95718030956954        6.21778256858200       -2.76489051124792
N           10.91969283370268        6.43203561113616       -3.37719362154271
C            8.35954227166668        4.67796408141858       -1.75541984256881
C            9.05374001553933        3.54774233542906       -2.21330863619894
N            9.58890151120046        2.58106942643884       -2.56867493445167
H            0.98357950401267       -0.58346582693673       -0.55700182029305
H            1.68874959229188        0.40825965664647       -1.83817279334460
H            0.77053707751821        1.17017149851409       -0.55153664556987
H            3.47572986309852       -0.25075972506002       -0.17872569122505
H            2.55180543268649        0.52437834101707        1.11385419361778
H            5.58859911368470        3.60431163316694        1.22924134938702
H            4.66354733441966        3.89100793543449       -0.24879633487602
H            6.30220243183487        7.33169112355485        1.74971098295674
H            4.85662323248429        9.12886765838569        2.61027496092016
H            3.72303366766194       10.64565644257513        1.04454926400594
H            4.02520783365737       10.36250089080551       -1.37715804986832
H            5.46107909824203        8.56011003317573       -2.23345839439991
H            8.08479870607817        9.10427156978778       -0.97759873522430
H            8.07920125735368        8.80035357526093       -2.71848276871130
H            9.54013233307964        8.52415944636390       -1.77080436710866
