36
 energy: -6.890566246865 gnorm: 0.000819863411 xtb: 6.5.0 (97a52f5)
C            1.45345129930848        0.42934596801740        0.81661380211955
C            2.73938016969505        0.58914221544222        0.03080718413769
O            3.37037246792527        1.82121348505608        0.29548043120437
C            4.51854260076074        1.93361920944868       -0.43433969054140
O            4.92814226062390        1.09463841651604       -1.20704372359283
C            5.29289644582544        3.18809368577532       -0.21492580500219
S            6.66594636857806        2.86890855487991        0.83877314695637
C            7.15570139274378        4.54737890269031        1.14009413781919
N            6.45816942320873        5.53843179347382        0.59796057191071
C            6.85908062455047        6.78348169726380        0.85408121821971
C            7.96333368580518        7.08530176920673        1.65188266483053
C            8.68781513647294        6.03594105619806        2.21629651440119
C            9.80192949312949        6.28249671296318        3.03219368765983
N           10.71819454340315        6.50764120212552        3.70869087507678
C            8.26896406706499        4.73223347338748        1.94967195481782
C            8.92622637710353        3.60649942670423        2.47297357160767
N            9.42999465769331        2.64489061339547        2.88280097529813
C            8.38531098003391        8.50457782513793        1.94437332823511
C            7.69306723935504        9.57125411490921        1.07875066687049
C            6.20797261112356        9.24584149819073        0.88412913336610
C            6.04094327599877        7.87357439453907        0.21417815415539
H            0.96295543669513       -0.52427708944559        0.61392357343692
H            0.75509594028226        1.23023461730041        0.57228586992350
H            1.64982869361987        0.48985433346851        1.88741558096822
H            2.56081826965757        0.54235137222125       -1.05291403785571
H            3.46281742947239       -0.20255255688825        0.27256737272550
H            4.65887532265892        3.93955829985237        0.25508971432203
H            5.65327776911255        3.58520083607515       -1.16344502968179
H            9.47363202188402        8.57566528814119        1.82722751261912
H            8.19046259405323        8.70877354139139        3.00353859999963
H            8.18361438125245        9.61958316157869        0.09880219387920
H            7.81565136419766       10.57014400393851        1.51988367502766
H            5.70982907014879       10.03099623897895        0.29874869683192
H            5.70645302414499        9.23777328090991        1.85949677653128
H            6.32025919922779        7.93890695255792       -0.84349988017387
H            4.98832436317902        7.56520170460329        0.22384658188778
