63
 energy: -13.615168601634 gnorm: 0.000860726889 xtb: 6.5.0 (97a52f5)
C            1.12210928402788        0.13615294034688        0.35765774953512
N            0.39017272776392        1.02978182166268       -0.20043969064468
C           -1.00276746760192        1.02799942392081       -0.10956724620369
C           -1.77514597951818        1.39496362170898       -1.21058628209100
C           -3.14667311933393        1.39526621780135       -1.13793646921440
C           -3.80271610105326        1.03833247716163        0.03736174245851
C           -5.26806837194148        1.04857023381474        0.08452462506187
C           -6.04831774992114        0.80819108663491        1.20403936099071
N           -7.35561907428485        0.92591953015389        0.77999735676354
N           -8.58084002281436        0.81401451719564        1.39484036202950
C           -9.52279938937815        1.02702453139250        0.52765323145580
C          -10.92386567097714        0.98776830996816        0.85151756525343
C          -11.95463074110212        1.17490366541849       -0.02536448051124
C          -13.23985594217512        1.08213262563742        0.57376383842031
C          -13.19646214661569        0.82579537769079        1.89991880444611
S          -11.56188864042851        0.68993532598965        2.44860532091699
S           -8.94851100688605        1.38228479052826       -1.13008202075963
C           -7.29724593220777        1.23085814060104       -0.57115176459605
N           -6.05722953222194        1.30970941327048       -1.00261826411371
C           -3.03074981936268        0.68011352662181        1.14211308275563
C           -1.65872083570880        0.67514152027424        1.06980925500831
C            2.55779463481695        0.13151978430060        0.29595492997891
C            3.29954736856193       -0.90754099272190        0.86822337448213
C            4.66968488834606       -0.90749708413301        0.80175539448644
C            5.35666256608667        0.12885203933223        0.16793465504970
N            6.78643764608430        0.12462378580472        0.09878603318422
C            7.49679464498244       -1.11497816420342       -0.04407491602182
C            8.70781424409389       -1.32144537481701        0.61168407508582
C            9.39010532439003       -2.50862523541266        0.46952428983106
C            8.87672071780720       -3.51085318451237       -0.33024787267474
C            7.67704523978513       -3.32135056621827       -0.98779014381393
C            6.99265831127875       -2.13532927060027       -0.84680471229974
C            7.51590853649530        1.35882713839086        0.17688080884422
C            8.65712605250822        1.56132122187662       -0.59497419651554
C            9.35925359795959        2.74264972028174       -0.51387033127907
C            8.93551018607717        3.74278614383339        0.33928675921675
C            7.80578829414116        3.55699242007987        1.11185021334961
C            7.10189281901515        2.37662184755474        1.03246493690007
C            4.61709449660898        1.16734368452278       -0.39929826665427
C            3.24659749677777        1.16742993298817       -0.33943452843706
H            0.63518207756119       -0.67218682370423        0.87387576401952
H           -1.27543369774821        1.67224256604444       -2.12202967162241
H           -3.73663994416278        1.67334913401366       -1.99352797733166
H           -5.73429955464420        0.58652681877068        2.20826711897769
H          -11.79910940790903        1.37370478689953       -1.07419201071852
H          -14.15917789843084        1.20553341960279        0.01977966317133
H          -14.05054774889534        0.71741062590054        2.54137237399002
H           -3.51898817967969        0.40355866182127        2.05978609830956
H           -1.07347857477441        0.41307572598118        1.93352013153692
H            2.78189918226144       -1.71149580232126        1.36236867176505
H            5.23479061313838       -1.70489581919465        1.25132324669136
H            9.09873084084878       -0.54010857173774        1.23955136540967
H           10.32564673945087       -2.65648149335999        0.98355700768030
H            9.41187951723346       -4.43957377654589       -0.44149731135243
H            7.27655202037635       -4.10227054955423       -1.61322721980147
H            6.06252316030507       -1.97871392481717       -1.36438171950918
H            8.97767478925143        0.78148028408499       -1.26328153711944
H           10.24036474011919        2.88731740799272       -1.11724114833139
H            9.48627442637411        4.66689905817489        0.40268802228560
H            7.47573379683408        4.33616653338761        1.77916961726032
H            6.22789677670874        2.22114455262004        1.64038110484886
H            5.13958025150558        1.96409240133692       -0.89874581819560
H            2.68127454019649        1.96766784043465       -0.78354235164395
