75
 energy: -13.879821629939 gnorm: 0.000909890010 xtb: 6.5.0 (97a52f5)
C            2.23285123080783        1.32861529862071        0.55087738309846
C            3.22284202016974        0.19719592238048        0.37265602986059
O            3.30502702257873       -0.22049784123854       -0.98665372139276
C            4.33849846083562       -1.09260212691179       -1.25648401207698
O            4.62002589855860       -1.44461208381264       -2.39213699320308
C            5.16704095984540       -1.61730926438929       -0.13562192956047
N            4.70215481891141       -2.39543612732347        0.91263570524895
C            5.72783333516073       -2.71794235953904        1.73185765029210
C            5.56941595002082       -3.53841005558436        2.95186367810456
C            6.90494141780934       -2.14248672314673        1.20163981379015
C            8.24618257006664       -2.20225290633943        1.69595063675890
C            8.67896966410946       -2.93395206539381        2.75051258613071
C           10.02022984011155       -2.96472244292638        3.19772678198572
C           11.15972631460902       -2.26415174230594        2.69432897874476
I           11.13996295878376       -0.92728378655623        1.10048140897867
C           12.25693429178096       -2.62354225214492        3.43791872620915
C           13.63659171399536       -2.11014928614312        3.25038248307310
C           11.81974109583372       -3.56375131844460        4.44551229622251
N           10.47336758520435       -3.72044322936938        4.23433908178613
B            9.56535283552907       -4.64864530343091        5.04621403920327
F            9.00816182450091       -5.60088856344912        4.20460438003632
F            8.57950336565524       -3.89864127335900        5.67152610764283
N           10.42484461406665       -5.34595867584561        6.10496130555953
C            9.94819543097116       -6.23481780021793        6.98548049995936
C            8.55088070508214       -6.70052459218505        7.06838836880279
C           11.04590694503413       -6.63961496292415        7.78074397479134
I           10.96897497023978       -8.03426371122933        9.32544942869757
C           12.17406458383859       -5.95893601704146        7.35681275757462
C           13.53736476986663       -6.10206107099016        7.92492289243516
C           11.78613992386109       -5.12395983519211        6.26098399467616
C           12.53047986163123       -4.24314596229015        5.45382035119637
C           13.98850626992969       -4.05417577751940        5.64256924353201
C           14.47639547564092       -2.96145654749883        6.35183129533064
C           15.84760521049016       -2.76116506015419        6.53929713337279
O           16.23798472816871       -1.63507576768068        7.26125297923806
C           17.63023480202799       -1.47879135131271        7.40935668114208
C           16.72508786232374       -3.69656127964810        5.99306997391348
C           16.27338033445547       -4.80425260030140        5.27577084274428
O           17.23646796942388       -5.67578014575762        4.77101248452019
C           16.72480247600521       -6.76343624827082        4.03639952164240
C           14.89403064663724       -4.96705577538319        5.10990514173655
C            6.52915687367290       -1.45820980713863        0.01378516787302
C            7.42210126522013       -0.71253686663584       -0.90421854077726
H            2.16207577417240        1.65398489530950        1.59061669331980
H            1.23854148932831        1.02474119569394        0.22187862167893
H            2.52248281976415        2.18940081955765       -0.05290971827552
H            2.93587593338918       -0.67275103605823        0.97517144966321
H            4.22729094176410        0.50128427818559        0.69485996479701
H            3.73864661916297       -2.71915258104023        0.99330606167570
H            4.51637875881483       -3.75101567904343        3.13512430081956
H            5.95496843918580       -3.01831310873162        3.82900323441293
H            6.08430278241642       -4.49405828301655        2.85217311149121
H            8.99343960852985       -1.60803909982253        1.16356439055337
H            7.99177845681266       -3.55582078302343        3.28895432884464
H           13.73232525879715       -1.57905323271043        2.30339741270126
H           14.35905232107750       -2.92624642848746        3.24630593963141
H           13.90567557052413       -1.41994925435784        4.05011622647721
H            7.91842797091423       -6.11843317007309        6.39737936991651
H            8.16335706830358       -6.59152943933854        8.08119431065490
H            8.47452246270477       -7.74910266746149        6.78116651290889
H           13.51044888005955       -6.62357430984203        8.88167157461399
H           14.18051910348812       -6.66928783762899        7.25207702045055
H           13.99417294060936       -5.12674335022930        8.09253103352047
H           13.78933337856973       -2.25030664293608        6.77036231549533
H           17.81615182210379       -0.56793255145875        7.98016050026345
H           18.09909564576471       -1.38380864299472        6.42886746136440
H           18.04337180150383       -2.32904216524819        7.95394378856049
H           17.78448357347129       -3.58308102236191        6.11363948072266
H           17.56280079833934       -7.36776820643738        3.68622812202744
H           16.16642337585201       -6.39818728607368        3.17317447130262
H           16.08865158359118       -7.37712016364933        4.67583065689201
H           14.50912503017965       -5.80561828125217        4.56235769718073
H            8.26706451337706       -1.32886147133809       -1.21116427466926
H            7.80936087362308        0.18719047339386       -0.42601015560542
H            6.88640351035358       -0.41268558150672       -1.80522851229598
