58
 energy: -11.307900048718 gnorm: 0.000970541303 xtb: 6.5.0 (97a52f5)
C            1.44111561164695        0.54573314732841        0.95080589557981
C            2.88781488841522        0.17045820792130        0.70448841336955
O            3.07414035845775       -1.22448749144027        0.66356246827793
C            4.40370417586043       -1.52272417908121        0.53726415973196
O            5.28218973930559       -0.68298064778783        0.46214144525579
C            4.75685603118226       -2.96391897278860        0.51345619719135
C            5.82974617797754       -3.57768540629189        1.22340939707117
C            6.74530862863238       -2.89509628214521        2.15203296060194
C            8.09985311335336       -2.96850326355976        1.96540406704765
Cl           8.72717034961073       -3.81241586939904        0.61753045299936
C            8.99231718831068       -2.31847418867464        2.86250362644607
C           10.37687292664933       -2.36857046799236        2.69377641904870
C           11.23045266282145       -1.72487839096372        3.56389708720101
C           12.70664757895678       -1.79244098163776        3.38647013951132
C           10.68161871152363       -1.01892056491645        4.63517560312823
C            9.32522042814003       -0.95635298205986        4.82031307560641
C            8.44926828960699       -1.60102478279736        3.94325561780283
O            7.08298197521319       -1.52182146436482        4.16254886076482
C            6.21663863871891       -2.16819709221218        3.30239961563304
O            5.00669638752870       -2.16428444239315        3.49425749496977
N            5.88202677844076       -4.87286449004700        0.95787681021496
N            4.87997768539743       -5.11380261239046        0.12143728782391
C            4.61980727313445       -6.43913041501223       -0.39465164068797
C            5.09660579886648       -6.81334646893634       -1.63999560671755
C            4.84886747540777       -8.07839452101953       -2.12115051207080
C            4.12443745395851       -8.97752612943978       -1.36452320705189
C            3.63436291809814       -8.62141199127958       -0.11570346277039
C            2.86746546290963       -9.59036369567904        0.71372484695650
C            3.89791205276534       -7.34912597266304        0.36029137814178
C            4.14887749350933       -3.97553617202576       -0.19662136887732
C            3.04140026028027       -3.89926189673614       -1.16459667215507
O            2.36373608578273       -4.88540586535345       -1.39293472689317
O            2.85497572299067       -2.69469938999840       -1.78840734376943
C            1.77531096768547       -2.76908201886509       -2.69065737575594
C            1.50629315434329       -1.44244656545132       -3.37079855386595
H            1.29588365943432        1.62697081662078        0.98824920336880
H            1.09299558522379        0.12338685410629        1.89411849340949
H            0.80127217478644        0.14426537024677        0.16427096921050
H            3.54482740407864        0.56099223518313        1.49433698478627
H            3.25584141880134        0.57480690018580       -0.24881397454549
H           10.77498308494678       -2.92278530551780        1.86350879839583
H           12.97133817311369       -2.22401322361700        2.42086396195410
H           13.16125968920944       -2.40648776754162        4.16440784103323
H           13.14971936045132       -0.79743529816647        3.43793635211274
H           11.34246040196125       -0.51912292477023        5.32257520937270
H            8.90691767101136       -0.41025059023322        5.64729110853596
H            5.65856758467280       -6.10188884911519       -2.22007881208685
H            5.22098519330239       -8.36722940737935       -3.09066091193537
H            3.93402083112987       -9.96767888729806       -1.74165530063466
H            2.48976202949817      -10.41619106967584        0.11044414782201
H            2.01137055744297       -9.10665926951233        1.18513430290423
H            3.49665034888717      -10.00759538611764        1.50045169705514
H            3.53454682767325       -7.05186823868019        1.32740774990957
H            0.90126158656788       -3.11581799550616       -2.12201194375583
H            2.01604956869456       -3.55566057117103       -3.41943512245533
H            1.27225573898721       -0.67483811852533       -2.63328698816765
H            0.67421074744147       -1.50108909783435       -4.07455963045873
H            2.38867991719854       -1.10594585553051       -3.91544698558929
