55
 energy: -10.772420231690 gnorm: 0.000549960708 xtb: 6.5.0 (97a52f5)
C            1.61683963981237        0.86419371555649        0.20161644508514
C            3.04563665276955        0.41982159349792        0.43670842272666
O            3.11834868294747       -0.72065534318701        1.25851735331980
C            4.42405755425139       -1.02665650752468        1.52717442501750
O            5.36934442116176       -0.39392698559010        1.09314674826788
C            4.66435500674317       -2.18957036776565        2.41706867503438
C            5.59477550140510       -2.24080145301622        3.49480649573536
C            6.45443956865409       -1.13288043615910        3.93986637946181
C            7.80865351714921       -1.30901730214557        4.03818264784401
Cl           8.50252497443991       -2.81059036246980        3.60786793515749
C            8.65136808204565       -0.24199843651733        4.45567790499877
C           10.03675762927069       -0.38540426683215        4.54503916434595
C           10.84418121607268        0.66340021051138        4.92874006739373
C           12.31905846632503        0.49582372474030        5.03761827423811
C           10.24532291658242        1.88354244225997        5.24541750857764
C            8.88717080038607        2.04679854731335        5.16529544517757
C            8.05893655436376        0.99429460907019        4.76816785000612
O            6.68928626778897        1.19273065821184        4.69719036602823
C            5.86916284483353        0.15283405299325        4.30635241273127
O            4.65114467569008        0.27718941931460        4.27966980345840
N            5.58659171423034       -3.43760614587329        4.05748169122179
N            4.68808071153713       -4.15004171718795        3.39097739028160
C            4.45171425667685       -5.53814717390953        3.70998393659042
C            4.69295658146016       -6.53747265475072        2.77607086360153
C            4.48326658480413       -7.86174627901314        3.10000735765480
C            4.03657738881237       -8.20230698511240        4.35892965374822
C            3.80194051282079       -7.21184451764135        5.29828418386817
Cl           3.24385395034642       -7.62751906862572        6.87692995654905
C            4.01315447724252       -5.88581200287482        4.97467128630303
C            4.08140588451663       -3.43659242762273        2.36368611545215
C            3.10667608047606       -3.96092478982909        1.39245352347096
O            2.38589787257359       -4.89369341070530        1.69828353435056
O            3.09068853819136       -3.37002200869815        0.15827792508496
C            2.12411730263189       -3.97960350364682       -0.66538013820483
C            2.08851452264021       -3.36932836268430       -2.05118000370886
H            1.55940311390504        1.74517820831045       -0.43998191915439
H            1.13005559178068        1.10089722936130        1.14814782668531
H            1.03959722296682        0.06605474877721       -0.26529812487986
H            3.63723387424483        1.20745581403812        0.92567183654625
H            3.55492245089165        0.17214301509097       -0.50539076322627
H           10.47351145904584       -1.33736257695305        4.30408553600356
H           12.66386053257054       -0.35776164645848        4.45344997072618
H           12.61334242545330        0.33578604104088        6.07524987487876
H           12.84016852087684        1.38020193168118        4.66981234702369
H           10.86815758863164        2.70443630514934        5.55719602035339
H            8.43056334222969        2.99031233201312        5.40732689328157
H            5.03778473953635       -6.26097754531157        1.79477518317838
H            4.66779614757861       -8.63073812239534        2.36755013203107
H            3.86758069541598       -9.23132107431790        4.62779661374851
H            3.83834629805129       -5.12123281277075        5.70979691736997
H            1.15611060798483       -3.88061313036758       -0.15394802953880
H            2.35986206859620       -5.05270534727354       -0.70214650815281
H            1.86462185375120       -2.30408899366064       -1.99401893898986
H            1.33876617473944       -3.83977248738962       -2.68959898861618
H            3.05938394009249       -3.46775835264418       -2.53734748013730
