52
 energy: -10.337890454788 gnorm: 0.000809729551 xtb: 6.5.0 (97a52f5)
C            1.43285658870096       -0.58979672877932        1.27813327483918
C            2.83268849256257       -0.58675382490775        0.69942668392608
O            3.01342960773558       -1.61033959513945       -0.24970484185651
C            4.32391809004071       -1.67325813188685       -0.63636095416940
O            5.18921189510506       -0.92516756780926       -0.22002291190046
C            4.67589710185540       -2.74133020017233       -1.60561521645876
C            5.79222637881303       -3.62227381222839       -1.51869561631709
C            6.77504339681357       -3.66154484039039       -0.42547428618915
C            8.11523534212002       -3.61688168094780       -0.70329394870090
Cl           8.64182401124954       -3.46511608250156       -2.32219045878284
C            9.07613031885186       -3.65567052665053        0.34471399977017
C           10.44870221843312       -3.60744915311259        0.09449423332609
C           11.34882622102586       -3.63567844494594        1.12793806893192
C           10.89810648361518       -3.71054595953320        2.43860739704074
C            9.55526874997923       -3.75911293311070        2.70659852301416
C            8.61526109823047       -3.73542249689040        1.67194450159997
O            7.26561260746331       -3.79783398955269        1.97836871839914
C            6.33346502154906       -3.78784677146214        0.95990677310122
O            5.13675805568837       -3.90460185866100        1.19168975922057
N            5.82747932185135       -4.42791445143355       -2.56683905896283
N            4.78048357801720       -4.10533195893689       -3.31563662866916
C            4.54396675465459       -4.75548870568668       -4.58289712547524
C            4.50655933707783       -4.02299298120816       -5.76015881721685
C            4.30517833784173       -4.65897838782194       -6.96805441150325
C            4.14742874072245       -6.02700440322986       -7.00659487760664
Br           3.87120811575947       -6.89190123369620       -8.65583300183402
C            4.19126833751625       -6.76493064374459       -5.84405864340415
C            4.39173558804177       -6.13221725496783       -4.63394123215275
C            4.02720399095107       -3.06895764877176       -2.77553010508805
C            2.85225502087523       -2.42447678879689       -3.38578562046860
O            2.15987517650323       -3.04140387823553       -4.17505075828763
O            2.61921967953893       -1.12143255838569       -3.03858362968438
C            1.46553806271322       -0.63731770825347       -3.68582644186591
C            1.17134011091392        0.80395937280383       -3.32322312688381
H            1.28837302732374        0.20383419027394        2.01310354115591
H            1.22330553650707       -1.54415241069293        1.76209397510244
H            0.69189714147883       -0.46115091522425        0.48899722989732
H            3.59209282703475       -0.73421661638102        1.48102942446444
H            3.06513922788272        0.36366491937836        0.19889656982718
H           10.78659282274031       -3.54617885646393       -0.92535000094950
H           12.40630909182178       -3.59843651192341        0.92394784798240
H           11.60891196047895       -3.73125724524335        3.24862157248875
H            9.19673518559128       -3.81927249343211        3.71914015320868
H            4.62605735993107       -2.95432849513129       -5.71545407714764
H            4.26754392799283       -4.09703894776550       -7.88762914268062
H            4.06766044729063       -7.83504415491086       -5.89324042732648
H            4.43149848353774       -6.69580116827432       -3.71798792167187
H            0.63693247540330       -1.30307878329770       -3.40647963257629
H            1.62597743217758       -0.75820230128918       -4.76636304528415
H            1.01338904885995        0.90341965085251       -2.24936843603333
H            0.28439866799252        1.18435427388529       -3.83266759067520
H            2.01463350314752        1.44382969468018       -3.58411025947044
