52
 energy: -7.291619304322 gnorm: 0.003249128925 xtb: 6.5.0 (97a52f5)
C            2.47603094394624        0.76142769725006       -0.17509340232201
C            3.10490170690160        0.62896102498989        1.12284193564404
O            3.35978604605212        1.82567894014292        1.76633585179233
C            4.50914474660809        2.39454718181105        1.28440911842784
O            5.19895536366710        1.89076313446100        0.41600310142892
C            4.87761733242331        3.63907002573909        1.89412699395938
C            5.83134023916744        4.54820362643966        1.47254249710475
C            6.47441463550599        4.49879772510615        0.14888529674172
C            7.83890240964984        4.42972939776778        0.05056568298301
Cl           8.78710659181083        4.36920395362688        1.46940875264362
C            8.47111959702149        4.36851349556751       -1.22293558066570
C            9.82617739148039        4.28763644808534       -1.38159877652709
C           10.36238697899561        4.22195826951801       -2.57750628729910
C            9.60279830617517        4.22615473608363       -3.66697320598165
C            8.29527903682581        4.30136337785204       -3.58794242616247
C            7.66095577240096        4.37795995422966       -2.37671180037994
O            6.27687656360093        4.46277376756652       -2.30350523815393
C            5.66730262446614        4.55011988994921       -1.06658220849733
O            4.45406660378986        4.69172385167370       -0.97033138049022
N            6.16786144535314        5.48581864552279        2.34988430510336
N            5.55202727361951        5.38904359805188        3.47321643706475
C            5.78159112201110        6.20706479782188        4.51872221636974
C            6.74181313822317        7.10742830493580        4.57697474484668
C            7.03036655847827        7.93367281504197        5.56597511144328
C            6.41295078335693        8.15369847846188        6.71160215973368
C            5.23757879572561        7.72557868844438        7.14549405508269
C            4.12458382765178        7.58741489534789        6.35839687359938
C            7.14618544787207       -2.63468417015565        4.75769352779738
C           -0.42226186665017        0.25252040670453        5.29937268187972
O            0.23527090737328       -0.45580611176963        6.15810235662103
O            1.75829873231701       -1.76520786563506        2.09089056128146
C            0.81511035045914       -1.56252315347706        6.11863145621597
C            0.79648182535814       -2.21579447010147        4.87369001517822
H           -0.19081785650784       -2.16824304520948       -3.49276808807978
H            3.11028597284735        1.28107526078217       -0.86594785639805
H            1.53234898436973        1.26609118361411       -0.11570470569387
H            6.72713591962396        1.76381186791824       -1.05234176430113
H            2.55638458048840       -0.01660580573362        1.79743189339297
H           10.09139197146495        4.82759594671752        3.79147052023796
H           18.06109134850653        4.01536839898573       -3.49398252389687
H           12.23708792928220        4.55850442247922      -10.36066598495809
H            4.20127754007480        4.54317680036951       -3.13349020844699
H            2.64959314800640        5.28976675231215       -0.13848591982152
H            2.91182719272809       15.49295230840766        7.26648226174264
H            4.52151216048338        9.15696207026431       14.20350428558656
H            4.93272934008337        0.21580923039664        7.78509656043918
H            6.36453228213053       -3.23581621726115        5.02910915177137
H           -0.22199453895048       -2.37957453913951        4.57560521745566
H            1.31313168266872       -1.61101752048484        4.14913303252305
H            0.41301327038284       -2.34271630840823        0.89709670912049
H            1.60571966395657       -2.51691711336170        7.17142177517025
H            3.29471817746218       -2.86793505763921        1.98269022353923
