58
 energy: -8.241106949628 gnorm: 0.003529357819 xtb: 6.5.0 (97a52f5)
C            1.50653025734362        0.50615511651933        0.36024771272348
C            2.78138868000397       -0.18239470340382        0.30429954385606
O            2.92852743828387       -1.19477916729054        1.23550053687404
C            4.20592142708556       -1.19255123348115        1.73196386703815
O            5.08677743697233       -0.44680601417787        1.34111322505711
C            4.46739614432211       -2.16071926780291        2.76055004557393
C            5.43370875030900       -2.09915125188455        3.75073995270633
C            6.18069902325324       -0.87863951757707        4.08482964140340
C            7.50174338757615       -0.92054534098156        4.20869005507095
C            8.26122866664673        0.19070944437843        4.48513189796808
C            7.60970504580500        1.42318999773433        4.64406420128628
C            8.37419386505576        2.55056629989719        4.90163389573038
C            9.66778556205127        2.51965367902965        5.00229961712604
C           10.39201639079920        1.34400107117350        4.85859250264368
C           11.76442333732635        1.28088718089853        4.95560885997410
C           12.39307378330080        0.14371324214816        4.80606466557621
C           11.73217901731075       -0.98929750146943        4.55585983154758
C           10.42876721748107       -1.00913044550222        4.44970231656633
C            9.69222933076399        0.14200802451106        4.59395347576971
O            6.23436150693335        1.52930585710571        4.55377043221407
C            5.48793677389536        0.39358785542923        4.31970167044769
O            4.26484781946234        0.42587350515722        4.32477966919550
N            5.68860438936924       -3.23484253774807        4.39481037228218
N            5.00926781777852       -4.23973171348226        3.97708213103920
C            5.11040255290740       -5.47196117163790        4.51468661260252
C            5.48355861660652       -5.73043296165526        5.75276076558680
C            5.65921762197150       -6.90088550364470        6.33858921029346
C            5.49440195393659       -8.12908210444693        5.88322453223521
C            5.00506436611053       -8.56076926546318        4.72900065347725
C            3.92618335595108       -8.01174264067863        4.08583602462483
C            7.53074566495637       -4.31107558595528       -2.60214187660070
C            0.64994333934000       -5.00439130428917        2.09291137075031
O            0.98448940040118       -5.47718922868752        0.93707358472806
O            2.97288821646744       -0.18613407842924       -2.61354354439267
C            1.39768565055554       -4.96374178923505       -0.12380457062920
C            1.52991493306912       -3.56850725806674       -0.11084382386913
H           -0.85236528547369        3.62437300532285       -2.38301388912606
H            1.35814604852953        0.97545853822150        1.31143279179991
H            0.68261173560113       -0.14910777422741        0.16000613594484
H            6.19664236088550        1.31065912038694        1.86230959769900
H            3.02523679791684       -0.55986205850834       -0.68106927229004
H            7.48731300915048       -4.11475250356213        3.12348606252968
H            4.19577481205550        2.60197106571992        4.73669510389319
H           13.52847395126581        7.25003242734749        6.26655087970062
H           16.52918254650712        3.21419186131330        5.67163629281600
H           17.94348693322960       -3.07249784785894        4.73554995426132
H           15.12980889062992       -6.65240279870075        3.68408074743677
H           10.16044865878502       -7.30492976916715        3.29309825160797
H            3.33889392590574       -3.14427788262589        5.28719431039296
H            0.63632621391476      -10.09231137693789       10.36484859018714
H            3.38719783939829      -14.45279604737373        4.55862132621907
H            5.96168630556823      -10.49556325092171       -1.03680094421094
H            7.29372593853814       -4.98014242322486       -3.34039087291351
H            0.57692005819222       -3.12457832917905        0.09879684022732
H            2.25320079345784       -3.28785302649546        0.62935169005595
H            1.64658548862843        0.38444355701724       -3.82099674368653
H            1.84500532117764       -5.46623421157561       -1.62403295623049
H            4.72482890660783       -0.61915995862463       -3.16178294943775
