59
 energy: -11.521899200132 gnorm: 0.000801497773 xtb: 6.5.0 (97a52f5)
C            1.32183070352854       -1.06454880957407        0.34607032995448
C            2.76268736650574       -0.70638190868662        0.04589036488143
O            2.98394378646559       -0.50337468187102       -1.32920811669769
C            4.30949974600327       -0.25919067123145       -1.56435761962181
O            5.15804124854502       -0.21600146544126       -0.69260919738102
C            4.69944331728030       -0.04776342528059       -2.98288522313125
C            5.78750918272287       -0.66678198137869       -3.66641696588617
C            6.70107259241996       -1.67408887614108       -3.11158519673514
C            8.03602793462540       -1.53622249427579       -3.28425559683656
C            8.94689173598154       -2.47779253983075       -2.74596798768017
C           10.32954359625772       -2.34354899183076       -2.88598830350172
C           11.20933602983360       -3.26351285636201       -2.33814841170664
O           12.58081792321999       -3.04006755189011       -2.53237731951133
C           13.42951740164363       -4.00435627756045       -1.95647249233095
C           10.67187612807743       -4.35043293339948       -1.62846277334885
C            9.32011994124336       -4.49688131711948       -1.48251001048860
C            8.42739822475195       -3.57332450224222       -2.03337054156446
O            7.06254919253552       -3.76618672423485       -1.86968376670932
C            6.18037440654326       -2.86163652330066       -2.41709483543562
O            4.97148233820580       -3.03502667319679       -2.36362247378422
N            5.88960346799282       -0.19390664475283       -4.89954029152867
N            4.89930940507097        0.67547484407165       -5.03887470242778
C            4.69599006926710        1.40947070030064       -6.26775032876553
C            5.08762844450464        2.73410020630718       -6.36845345923883
C            4.89386605953774        3.42271762999887       -7.54368714286022
C            4.30946772078924        2.79569526471501       -8.62561356691923
C            3.90991978539830        1.46886791669570       -8.54557596513060
C            3.28429253727651        0.78058105527922       -9.70753740533142
C            4.11548407615918        0.78590803296190       -7.35993088252295
C            4.13034340628634        0.81698547665086       -3.88869401772833
C            3.01818664813590        1.76267373390985       -3.69045638026787
O            2.37629482325502        2.15685754986187       -4.64723750230654
O            2.78765274479851        2.17204873763357       -2.40467380442845
C            1.70996491775219        3.07861993814746       -2.36017901968428
C            1.42540381999409        3.55705476474813       -0.95134950481048
H            1.14797573369726       -1.21368337510727        1.41306666625777
H            1.03894837213731       -1.97960033339352       -0.17487626593830
H            0.65132263289149       -0.27785605321913       -0.00010142522909
H            3.45102690789769       -1.50024726980305        0.36934096556138
H            3.06771841183195        0.21465261988572        0.56206367607475
H            8.41273199450481       -0.68509325558163       -3.82153636384076
H           10.73334085669633       -1.50807341487624       -3.42744701475578
H           14.46152810528814       -3.72390677335919       -2.17270333167202
H           13.22768782007748       -4.98316612217887       -2.39436470977023
H           13.28581358450473       -4.02485790276441       -0.87508115881694
H           11.32974396208360       -5.08011021515188       -1.19288453424471
H            8.91384386788541       -5.33194112983955       -0.93934785142236
H            5.53891875229876        3.21267497310809       -5.51654877613038
H            5.19721111025528        4.45427725898772       -7.61899549228797
H            4.15938085031644        3.33692215046973       -9.54390345397054
H            3.07093225634837        1.47972957805626      -10.51634476978749
H            2.34389034903717        0.31041824986632       -9.41834223958560
H            3.94437090569663        0.00606936031519      -10.09915895604412
H            3.81652558382092       -0.24319638618083       -7.27471491345846
H            0.84006478056813        2.56939128206967       -2.79784651272986
H            1.96209789151744        3.91485691061819       -3.02742914428637
H            1.17849000817657        2.71561936773938       -0.30381723993765
H            0.59649274586507        4.26590528487009       -0.91616990008990
H            2.30506179398984        4.04153719378756       -0.52682714242730
