56
 energy: -10.985041088740 gnorm: 0.000524175668 xtb: 6.5.0 (97a52f5)
C            1.22341800108090       -1.03096079486298       -0.78125506455537
C            2.63722170624185       -0.53790817050259       -0.55268036736759
O            3.01181591378816        0.44555545707266       -1.48714869074583
C            4.33134974366847        0.76856673634089       -1.32980761790596
O            5.05279062924711        0.27895598515799       -0.48065084383688
C            4.88370385680273        1.77239491803589       -2.27602686396310
C            6.10063453249492        1.66710994990519       -3.01072112948241
C            7.00945745188138        0.51413076558657       -3.02929073123746
C            8.34345396392976        0.70999173591648       -2.91372705543234
C            9.24728797318934       -0.38041433644218       -2.90735245888924
C           10.62508709046672       -0.20760915073256       -2.76206884719216
C           11.49548238987286       -1.28562043557633       -2.73734228270395
O           12.86188900148370       -1.00606390055902       -2.58724344980236
C           13.70383507678622       -2.13347053195536       -2.56529863521789
C           10.95380864982835       -2.57575803569836       -2.86232578885032
C            9.60695562563823       -2.76226105912631       -3.00727228657604
C            8.72406291471933       -1.67948069725604       -3.03539808984685
O            7.36598163435213       -1.91372712312897       -3.19606785455132
C            6.49441268807032       -0.84910368284772       -3.22747033362622
O            5.30183717999049       -1.00697429158792       -3.44271351184452
N            6.32579481232324        2.77965934159557       -3.69214899199952
N            5.29764659093598        3.57683641162388       -3.44542123530215
C            5.23188665328323        4.89687924122267       -4.02627858745063
C            5.02735967826921        6.02356473982424       -3.24025327395604
C            4.99642734346228        7.27887606221883       -3.81142016930603
C            5.17576849815001        7.42375140905998       -5.17039966381517
C            5.38953314582466        6.30603762649956       -5.95977724086025
Cl           5.61059260838676        6.47409612286642       -7.66248056783262
C            5.42149509854766        5.04946706258300       -5.38740727117409
C            4.36757277475496        3.01138819929700       -2.57779118342986
C            3.15087662770514        3.64926519024089       -2.04437611007541
O            2.57973171665046        4.50913938431794       -2.68973845215350
O            2.73886421284496        3.24001307158944       -0.80524762962031
C            1.56799658533936        3.92459502185088       -0.42429894156158
C            1.07526541921345        3.49497695964273        0.94205200988850
H            0.92681890886457       -1.78661570818471       -0.05181263019229
H            1.12745568391641       -1.46407860583244       -1.77731779593022
H            0.51549741800927       -0.20413613988411       -0.72160480850111
H            3.36766225075749       -1.35598266569508       -0.63558015730249
H            2.75872183396372       -0.09695589495441        0.44682963194665
H            8.72118479892348        1.70995944836353       -2.80265926208354
H           11.03303202687916        0.78140405069046       -2.66347437324908
H           14.73162537273168       -1.78736487179220       -2.44462015644408
H           13.61824287045214       -2.67611476478160       -3.50813847723895
H           13.44129077915794       -2.77330298073382       -1.72124052850334
H           11.60474902946190       -3.43071716307105       -2.84506682318513
H            9.19687676843290       -3.75216139152982       -3.10539659797913
H            4.87891026876655        5.90027635210766       -2.18147811173934
H            4.82898679452638        8.14682819060555       -3.19453665681116
H            5.15245466715709        8.39621562214527       -5.63248241944789
H            5.59956385991064        4.18614770694724       -6.00255891067200
H            0.81619809059379        3.73635249696129       -1.20386215692057
H            1.79806365812157        4.99909097163421       -0.45183134679891
H            0.84435724677249        2.42967308596644        0.94842374751725
H            0.17879669115259        4.03791468553598        1.24636720650101
H            1.84614319222945        3.66091839333331        1.69494983930742
