66
 energy: -12.634844563715 gnorm: 0.000814270945 xtb: 6.5.0 (97a52f5)
C            1.09059139068534        0.44367531563760       -0.73029082438687
C            2.57456188772127        0.53596740816236       -0.44169205059756
O            2.86446147294266        1.50655514118737        0.53712342821904
C            4.21473897242343        1.58389141989842        0.74969222930130
O            5.03708327990241        0.94268910473160        0.12107994811554
C            4.65365356822424        2.55014251087158        1.78934010184167
C            5.64693274803636        3.56578328247318        1.66091123302869
C            6.40075586220817        3.88624449804923        0.44652723347960
C            5.86448215750435        3.66539628810360       -0.77924474319732
C            6.56412479748391        3.98996386247660       -1.96127963880762
C            6.02526462599156        3.77273597067732       -3.23663541256270
C            6.71661168403385        4.09702000695931       -4.37683195853391
C            8.01321014385092        4.65843547622734       -4.26633037494243
C            8.53802590996132        4.88690912977226       -3.00179929953858
C            7.84442826849564        4.56286618742233       -1.84278382915369
O            8.42609254121284        4.80687268980119       -0.60965669062352
C            7.74461480802877        4.47263283850991        0.54258983651299
O            8.24575822712760        4.64684382941421        1.64288632813887
O            8.79980094108651        5.00928847352409       -5.36018590741346
C            8.42000701671869        4.42696977963999       -6.64357930547748
C            8.85871598469391        2.95703562591595       -6.66505093513235
C            9.15622671812418        5.20382435749558       -7.74499495596855
C            6.88685568793171        4.55583175463476       -6.84967242195512
C            6.09145294099130        3.88992344049394       -5.72112016388335
N            5.74690526010479        4.24425394425770        2.79267999870603
N            4.87914386712180        3.70648734065715        3.63783806303827
C            4.76994089644944        4.20750379759302        4.98677308908435
C            4.68261108534570        3.35392760769523        6.07916073756953
C            4.62409246990942        3.85946039860783        7.36149069856885
C            4.66054593162408        5.22168416876676        7.56880476051597
C            4.75956961778305        6.08019844646349        6.48643369188337
Cl           4.82198723692954        7.78665970874195        6.73174811222585
C            4.81611469050711        5.57241326744197        5.20323732600577
C            4.16475047266478        2.65563966286273        3.07168624339469
C            3.14999556803813        1.80827358658986        3.72583365435288
O            2.44986598812027        2.26214173448457        4.61271823356752
O            3.07472835302833        0.51104971785014        3.29271442132163
C            2.07248275779762       -0.18761154639095        3.99461658839144
C            1.92851520074810       -1.61598191704495        3.51216792613996
H            0.86300653480643       -0.31303601581829       -1.48295897415603
H            0.70946135460093        1.40123829265641       -1.08576041764665
H            0.53888074677003        0.19608179404749        0.17668772150053
H            3.14526383999615        0.79831959197842       -1.34324601666830
H            2.97529155541351       -0.41966343550561       -0.07595904168897
H            4.88234091508677        3.23727296440527       -0.85902545969656
H            5.04212179197792        3.34546842496973       -3.32067571809883
H            9.51649519160293        5.31973032560513       -2.91732133503475
H            9.93480719999308        2.88352583654595       -6.51883369304824
H            8.60591600919547        2.48359228575808       -7.61248905075648
H            8.37984981353270        2.39951302673063       -5.86280306908497
H           10.23232536752457        5.14405219621202       -7.59323964276015
H            8.87626120265683        6.25522283951957       -7.71721357854771
H            8.92316278126305        4.80890473008068       -8.73264430955822
H            6.61450583527513        4.13361325945186       -7.82359897086345
H            6.63525187665727        5.62023138077563       -6.89871299192365
H            5.99614943081088        2.81417618075894       -5.90822522329275
H            5.06510755249800        4.27732480186376       -5.69893103749884
H            4.64592712567700        2.29219800163984        5.90845590204915
H            4.54816766362869        3.18848427703485        8.20161175407956
H            4.61693412471207        5.63299557491762        8.56293102940941
H            4.91079136787105        6.24172425586586        4.36777975257586
H            1.13720595709690        0.37611092544969        3.87131275913939
H            2.33360428712949       -0.14579139444317        5.06113286008483
H            1.67108817444764       -1.63817657089313        2.45336576897747
H            1.15774022169894       -2.16088297666075        4.05964676267161
H            2.86970104652170       -2.15426888361269        3.62453884859988
