66
 energy: -9.180371603869 gnorm: 0.001604508447 xtb: 6.5.0 (97a52f5)
C            1.63844506422520       -1.25018224754285       -1.47852020448274
C            2.91038814008012       -0.55290405655282       -1.47646592012556
O            3.46964448168855       -0.37683265744596       -2.72837150150731
C            4.83054077372954       -0.25120938821781       -2.62088404410882
O            5.43831292654670       -0.28588807320821       -1.56499661134897
C            5.52823527042239       -0.05701470584486       -3.86195552474935
C            6.78516514688673       -0.49323433282253       -4.23567603720652
C            7.49619225382985       -1.56707459801664       -3.53848359087375
C            6.82633993054945       -2.52255078730920       -2.90820933435977
C            7.44213157838107       -3.57182078080946       -2.25646497947026
C            6.74240423143273       -4.55466640008585       -1.60547846740740
C            7.34468255448445       -5.57286631144479       -0.97205383434288
C            8.76359209179313       -5.63878955536853       -0.97029946708691
C            9.45451440865589       -4.67108201841473       -1.62859527022236
C            8.85253333239551       -3.63507326308252       -2.27222001459966
O            9.60820114507878       -2.66901324159690       -2.92144383083244
C            8.96482019265387       -1.61998678732892       -3.54738287295481
O            9.60079819008947       -0.73256255926434       -4.09606991328022
O            9.47178186708138       -6.65793874663827       -0.33398465925409
C            8.71936952087530       -7.47390939997698        0.62576953309851
C            8.58526627999945       -6.70819398641100        1.91658701890988
C            9.49290120040251       -8.74488729104187        0.87049145695830
C            7.34458868501789       -7.80635788257871        0.05763257258132
C            6.56547798711851       -6.63037075349883       -0.32466721365183
N            7.24476321338732        0.00313364922860       -5.38211172550998
N            6.57375779319479        0.98504213269069       -5.90713774444010
C            6.27152814607331        2.22329478947617       -5.33787046268928
C            5.00898480745587        2.73167868846445       -5.41516322074012
C            3.86854577549857        2.27525302124194       -5.91020322947271
C            3.49237117994449        1.15907113773360       -6.50855389454487
C            4.20339357890454        0.10126252133645       -6.85694632289871
C            3.65501466825097       -1.09593866969167       -7.23662236359701
C            7.23894495399625        2.91629855895908       -4.76770521468367
C            0.12512496607658        1.99111628330690       -5.25842023654993
O            0.59692731741430        3.06227832561085       -4.70815043355213
O            1.98654681861611        1.73636262745295        0.15738493911585
C            1.21259357475527        3.29775600689578       -3.64646837311238
C            1.43945321245586        2.17435509686775       -2.84084599259689
H           -0.55879683090997       -1.56162956376682        4.16748771399311
H            1.73839265614809       -2.24341584846707       -1.86602660451843
H            0.89110157950898       -0.72767129034228       -2.04108752269113
H            7.26545911169120        0.24547683494562       -0.62140220048033
H            2.87024668287878        0.40655350657847       -0.97660787484371
H            4.35123293428636       -5.89208150779022       -4.03880417072828
H            1.32758425618388       -6.77024147684104       -0.66906680095450
H           11.51640346759339       -1.72248157876361       -3.64646321050342
H           12.30141820379088       -5.98732381707215        5.52693190464841
H            8.03840122272975       -7.25400751599429        2.65713421453057
H            8.13765183154429       -5.74843113154697        1.76841502112655
H           12.96226974992520       -5.85178532312793        1.24535017155369
H            9.73588646469730       -9.24461244781651       -0.04357230659767
H            8.98144240291129       -9.41359892811500        1.53138380315053
H            2.99405172036400      -11.44145784604231        1.24532916029456
H            7.41071283802760       -8.53300995445132       -0.73390979633574
H            2.09473816235275       -5.01367493558130        3.53442067763581
H            5.65749680382182       -6.86483004197145       -0.85650135610291
H            5.50475608879051        5.88359095166181       -0.95707092812669
H            4.19322001827008        8.42339313573819       -5.37476776143114
H            1.54899953551824        6.13275074811922      -12.29582786340766
H            0.71757768113217       -0.97953725277920      -12.49719046067059
H            5.59729093870985       -2.29399182602390       -6.22166960245837
H            2.31224491347281        1.66734424001783       -3.20556112714262
H            1.60425945710190        2.51139913228614       -1.83359097381500
H            0.53019374285901        1.52847039273918        1.36314224092397
H            1.83244015710778        4.79718840191322       -3.16964182878970
H            3.62063694864227        2.38711060103849        0.90824446780976
