56
 energy: -10.992582341950 gnorm: 0.000712492532 xtb: 6.5.0 (97a52f5)
C            1.08139260551137       -0.60494537049282       -0.95413815834399
C            2.49928343104213       -0.22815715108971       -0.57705231874951
O            2.85208851000770        1.04723060493472       -1.05588758142365
C            4.17495616408296        1.29446207691783       -0.81206100171523
O            4.91423879476720        0.51980442028529       -0.23345261567374
C            4.70820317582816        2.58880522645163       -1.31017003522833
C            5.90877001369531        2.77937099225892       -2.05460549704189
C            6.81687908116747        1.72590498921964       -2.52587436353366
C            8.15384905796384        1.86909883919943       -2.35985177144905
C            9.05543966610992        0.86968767309705       -2.78687598761850
C           10.44129135110342        0.98088421279693       -2.60897476836261
C           11.27722304689470       -0.01513197279965       -3.02155912286333
C           10.77766432242622       -1.17959665724856       -3.63429725427825
O           11.70602653847288       -2.14400190930420       -4.02226908843293
C           11.15883105117260       -3.29163012580511       -4.62696809382441
C            9.40439424318727       -1.28871830258788       -3.81125972982072
C            8.53130764432460       -0.28610677148480       -3.40170332436402
O            7.17260241450903       -0.44882433625351       -3.61802781702654
C            6.29946725317003        0.54316227759892       -3.22667121726232
O            5.10507014456741        0.47440375329058       -3.47289701000360
N            6.12026473157039        4.06854139666465       -2.26878893661666
N            5.09779122900174        4.70440534918755       -1.71649976604493
C            5.01045688666960        6.14549687269645       -1.74780886928329
C            4.98192738733145        6.88875330627061       -0.57499887028779
C            4.92000993229904        8.26602543275737       -0.62217230240345
C            4.89134537624836        8.91460144813452       -1.83819919540805
C            4.92698730440334        8.18045013473450       -3.01207234287871
Cl           4.88868421753329        8.98177454086847       -4.53935246303128
C            4.99020846946158        6.80149672680004       -2.96497799632288
C            4.18968658892148        3.84671141918158       -1.10411948828343
C            2.99576273014267        4.23336723152620       -0.33293136066397
O            2.44097232910939        5.29282860618092       -0.56082219722098
O            2.58630697491704        3.36221758123841        0.63940850778711
C            1.43904574258411        3.85556567202207        1.29082366193337
C            0.94935666578854        2.91547307875392        2.37301542484471
H            0.80336785232494       -1.59179975646996       -0.58013826855122
H            0.96354974822862       -0.60710273248098       -2.03814040737605
H            0.37352665799018        0.12199327747524       -0.55561671455417
H            3.22891094051379       -0.93973229718429       -0.99062495979057
H            2.64215884661244       -0.21623945912201        0.51272222990174
H            8.53270054576282        2.75165783946458       -1.87752771009812
H           10.83975556364872        1.86409987135073       -2.13971481912689
H           12.34105422923277        0.06813791174940       -2.88578682556180
H           11.97884612503781       -3.96547144666585       -4.88025024790813
H           10.63158289196521       -3.01137069362197       -5.54032650851488
H           10.48780241267303       -3.79300757522538       -3.92760394441279
H            8.97964664825222       -2.15661212284592       -4.27663766362937
H            4.99812665663389        6.37295719509803        0.36942636192797
H            4.89185266023981        8.83517842388956        0.29283339864332
H            4.84161413108254        9.98895863715832       -1.89259748978341
H            5.02542585175368        6.23576130961314       -3.87840721750310
H            0.67409219111773        4.01737792643758        0.51811048957476
H            1.69775388458132        4.84291933351884        1.69890199434933
H            0.70543846391600        1.94057921191250        1.95076492523818
H            0.06126725841124        3.29688486644867        2.87978690924150
H            1.72631136403537        2.75601901349579        3.12107941883018
