56
 energy: -7.962939621431 gnorm: 0.001733364987 xtb: 6.5.0 (97a52f5)
C            1.09949517016120       -0.39897611648530       -0.40899298449627
C            2.44477235513599        0.14152880884704       -0.45245850287423
O            2.75313739739743        0.82489092481372       -1.61454929873865
C            4.09574888145046        0.72995598847062       -1.86833563522364
O            4.88271839089222        0.14566162209352       -1.14459460856383
C            4.54511738055830        1.40349931253869       -3.05544590382743
C            5.70134714961842        1.17268647167855       -3.78138208309852
C            6.52045156514380       -0.03957904876058       -3.64481455600537
C            7.83833335809784        0.05636848147010       -3.54011794378941
C            8.65527693808581       -1.04584897603968       -3.38703870974074
C           10.01874064608196       -0.95468619986259       -3.26037092000748
C           10.76125709667990       -2.01570640557057       -3.09348379420434
C           10.22130461211508       -3.28375315233391       -3.03341920521901
O           11.07159337569581       -4.37623345015032       -2.85584309125003
C           10.39536221682944       -5.60941342352901       -2.82229739994438
C            8.87264200855214       -3.40190973046664       -3.15544115856657
C            8.05797871579882       -2.32598781618347       -3.33294637072236
O            6.68612130550862       -2.48599777069513       -3.46036624111517
C            5.89876196179545       -1.37270668722712       -3.66674991815580
O            4.70017507092772       -1.46857772246053       -3.88335122126762
N            6.07046315259153        2.14111854987388       -4.61263306233153
N            5.27811755128922        3.15197664239243       -4.61930567872485
C            5.49506194063302        4.26911219592166       -5.33918475577274
C            6.52585999508556        4.47842235589069       -6.13211364330528
C            6.81182094387080        5.55796768651784       -6.83684294439866
C            6.13807159638212        6.67998412397902       -7.01245688432798
C            4.90299245346554        7.00070608138202       -6.65738131529578
C            3.83968380764546        6.13593658083999       -6.67846042088963
C            5.68472190334188        4.77973356130354        2.43189727935759
C            0.71621952803847        4.42037500402587       -3.20621329980256
O            0.99085764738491        5.09613143577080       -2.13760558196861
O            1.63259387495019        1.83269446226965        1.78009468534524
C            1.27539609540007        4.78954928099018       -0.96164431157342
C            1.26680564978959        3.41558993081964       -0.69622586941038
H            0.35272436679948       -4.42872599508764        1.76076159639242
H            0.92043100535609       -1.07402324940258       -1.22084501413961
H            0.35407132465209        0.37089807579680       -0.41383644897584
H            5.73814179671426       -1.81305630828968       -1.11522574420504
H            2.67958634283004        0.76911695161127        0.39922360992320
H            9.05796434462987        4.47324620245728       -2.23751708404862
H           15.21625746903764        4.49433740146038       -2.59097386995856
H           17.62038801952964       -0.92579519911767       -2.53133376286625
H           13.56649972532807       -4.43879279673230       -2.63740074800984
H           11.12757376210581       -6.40675396730289       -2.68578225592875
H            9.69090680217015       -5.61617455649134       -1.98863663715369
H            9.86566849383186       -5.76017795516751       -3.76453088201608
H            3.59880305451967        1.85168433614255       -5.76332538041623
H            3.48354612387455        7.86006490673439      -13.38509578414373
H            4.51691649729128       13.51773666168689       -7.80044642101959
H            4.55045037766077        9.75463648301130        0.24335757312517
H            4.78514691945727        4.43680843756210        2.77870921667525
H            2.09708942341897        2.96433110077639       -1.20380737338052
H            1.37872524903275        3.28334554026791        0.36473707179285
H           -3.17492147697330        2.64106814143470       -1.44908290137645
H            1.64740577684259        5.88231423716871        0.24350859933940
H            1.18287287387289        1.58355854498657        3.57793799313706
