69
 energy: -13.223674166554 gnorm: 0.000758609135 xtb: 6.5.0 (97a52f5)
C            1.19277518833373       -0.11446421098649       -0.40812931118240
C            2.67017216166047        0.14249973288485       -0.19386041806374
O            2.90350332819552        1.28365653642514        0.59747146723770
C            4.24847616185177        1.50665870923170        0.72303831695185
O            5.10522481742417        0.79922777188073        0.22433629293032
C            4.64614081296561        2.69417048961570        1.52174278622082
C            5.64800963362416        3.65093217074253        1.18589293547979
C            6.43051012509456        3.68820790081637       -0.05697076925112
C            7.77493718467175        3.84491664976977        0.00070922126801
C            8.56035176592973        3.87044785712913       -1.17248613894926
C            9.95511407695107        4.00572599535352       -1.14047436975860
C           10.67992472456167        4.00932615358869       -2.29625888554231
C           10.05434207815505        3.87743009458054       -3.55044993636256
O           10.87572983389676        3.89423062735515       -4.67698300163742
C           10.19427876291117        3.77742971556862       -5.92559780195981
C           11.12262057637202        3.82909468013299       -7.08327227103602
C           10.76218706210235        3.65067619007777       -8.35007982215000
C            9.34881354703276        3.36226495275605       -8.71908034021173
C           11.79099013733725        3.72968374125125       -9.42360636924739
C            8.67210867508116        3.74239832391079       -3.58078297707850
C            7.90982791549035        3.73855102020738       -2.41670906765194
O            6.53223743357304        3.61363929538994       -2.51432065189726
C            5.76677743818114        3.61624176923086       -1.36619094447330
O            4.54578388251753        3.58795137908913       -1.41308327912781
N            5.80175348619086        4.52615970617029        2.16833436773649
N            4.92470532433652        4.18555324197874        3.10363854610818
C            4.85126611980320        4.90343290675838        4.35429087308396
C            4.90011409463458        4.23482227327378        5.56681245340478
C            4.86381580109226        4.93916810313542        6.74788956342176
C            4.78806774362497        6.31728342451778        6.72936135955476
C            4.75483795323327        7.00894069639348        5.52669619150317
C            4.65227227375509        8.49351673315584        5.50129962525164
C            4.78194892797230        6.28670458351869        4.34632676109030
C            4.17813317720408        3.06110661167761        2.76247413675247
C            3.17675290889172        2.37376267974245        3.60185834150200
O            2.45250278475720        3.01758954486893        4.34001953304562
O            3.14745625751512        1.00722534243318        3.51007729463638
C            2.14932221094744        0.47635312666474        4.35165978648712
C            2.07385175474846       -1.03407297155337        4.26704333676308
H            1.01320351977027       -0.99915708286906       -1.02124282231812
H            0.72319205751171        0.73844778417837       -0.89853248424033
H            0.68530170073071       -0.25540212535931        0.54627401877514
H            3.19405023900526        0.29805500137598       -1.14782472097291
H            3.15938830941379       -0.70502989649479        0.30621749251927
H            8.25373218810946        3.93266372736005        0.95878759878362
H           10.44953874877329        4.10500424932334       -0.18951418931953
H           11.75015231303053        4.11295032715222       -2.27346607615636
H            9.46905770643846        4.59636592128095       -5.99040359346991
H            9.64949741159985        2.82679918614963       -5.92213396676418
H           12.15495169529625        4.03418353971917       -6.86018956925702
H            8.66966495149101        4.08298396695573       -8.26370567013774
H            9.05850537092958        2.36433224876429       -8.38969270916862
H            9.20134138345813        3.41178776417189       -9.79791290886200
H           12.63117517146804        3.07002051073459       -9.20460254143176
H           12.17406058871791        4.74632394941742       -9.51764662860077
H           11.38329209358668        3.43500096956981      -10.39070039804161
H            8.15282997019439        3.63867237287660       -4.51318338996885
H            4.95530020113788        3.16007105056785        5.56967739485161
H            4.89328266867507        4.41356942473071        7.68833493761402
H            4.75403292343885        6.86736824590172        7.65388326139195
H            5.03641780511577        8.93185370465893        6.42263226755209
H            3.61415903183649        8.80603456728123        5.38608055378755
H            5.22490613574522        8.91081365522104        4.67261434790496
H            4.75100044007828        6.79993141634969        3.40241972508661
H            1.19815392515820        0.94380676748589        4.06139556717693
H            2.37201143910933        0.81208184206321        5.37393630545141
H            1.85740734590849       -1.35039786685949        3.24658337863858
H            1.30200203241500       -1.44542669930198        4.91963111636972
H            3.02796248922571       -1.48172207114597        4.54601686796050
