66
 energy: -12.767164332027 gnorm: 0.000934483624 xtb: 6.5.0 (97a52f5)
C            1.07483518129157       -0.79282928939620       -0.70690810212046
C            2.53843028386394       -0.43056384369044       -0.56252271653251
O            2.90617089757825        0.64304309343794       -1.39571905228465
C            4.24400684092330        0.90308920432648       -1.27005274954371
O            4.98991036395255        0.29028079331018       -0.52770708543858
C            4.78142486381978        2.00586551185908       -2.10726521567364
C            5.99473856146654        1.99174052704432       -2.85473833702692
C            6.90900874249192        0.85103006458384       -2.99991574856533
C            8.23870462382687        1.02862630470586       -2.81189771033894
C            9.14342774283108       -0.05029200733994       -2.91784495484276
C           10.52042832382623        0.10185844140616       -2.70588209880845
C           11.36034294214320       -0.96896194914903       -2.79882928224281
C           10.87368890771937       -2.25364044865439       -3.10616660257443
O           11.80795020404851       -3.28622843504745       -3.17219421778085
C           11.26961507861852       -4.57583742735465       -3.46168831945380
C           12.31780844960217       -5.62688768095466       -3.49978403964194
C           12.09032662782447       -6.91269468264404       -3.74932157530528
C           10.72059075023649       -7.41009438588955       -4.05162809327049
C           13.22648624028676       -7.87488120107163       -3.78268659952013
C            9.50912145195878       -2.40281503834642       -3.31900196718672
C            8.63167542576413       -1.32615990097709       -3.23296678936560
O            7.28123347025974       -1.53606020848884       -3.46704799690066
C            6.40537426068130       -0.47250726828837       -3.39270246908641
O            5.22236629628206       -0.59873740262049       -3.67225097970848
N            6.21369826870045        3.17651659131703       -3.40500794747608
N            5.17953245454885        3.93567995050646       -3.06724696259472
C            5.10907937324575        5.32044734574626       -3.47024198846853
C            5.37067034737123        5.66439822532502       -4.78637715398067
C            5.33771410714722        6.98281035995046       -5.18257370895860
C            5.04789431208425        7.97234436378642       -4.26512749169937
C            4.79397235491283        7.63986921463027       -2.94992556079392
C            4.82844062069014        6.32192966942994       -2.55325434980703
C            4.25751657885527        3.26820843498775       -2.26524734421171
C            3.04192163049117        3.83498811973062       -1.64807856755804
O            2.38855592078631        4.67207807973295       -2.24505328281901
O            2.73471631643848        3.38548219655232       -0.39126131841891
C            1.55724456710754        4.00050554546872        0.07860318686782
C            1.19028526312119        3.54162191074540        1.47467766560094
H            0.79204524003690       -1.62948552550707       -0.06588221807892
H            0.84822712247693       -1.06403188250127       -1.73830557751889
H            0.44269270123921        0.05799545840545       -0.45232894944212
H            3.19014325140973       -1.27734303634124       -0.82115954207091
H            2.78362879882442       -0.14072757674463        0.46884396808173
H            8.60804307797045        2.00471899144509       -2.55553281369399
H           10.90806889785500        1.07672238064976       -2.46507749796517
H           12.41721286438604       -0.85460607519996       -2.63566813333235
H           10.75950104366275       -4.51771542479821       -4.42962866212933
H           10.52950863900183       -4.81155432805842       -2.68876457003611
H           13.32585704269258       -5.30236658919745       -3.30971645301295
H           10.04169631638229       -7.21665259227922       -3.22067518785821
H           10.72052587267736       -8.48475569599296       -4.23487963201409
H           10.31796952417817       -6.92540202745900       -4.94145569111801
H           14.01229675676486       -7.58116312628220       -3.08581426590879
H           13.66190108126242       -7.92335383029824       -4.78148205135005
H           12.90251846770836       -8.87893337890910       -3.50634536965879
H            9.09462187786598       -3.36239131243028       -3.55840009070559
H            5.60089188413686        4.88367101860818       -5.49021747684193
H            5.53923389248472        7.24171990924190       -6.20923821203747
H            5.02082265507454        9.00400828562363       -4.57540164638653
H            4.56636952696955        8.41187740986360       -2.23303893446565
H            4.62645103549135        6.05211745458684       -1.53126191538998
H            0.76134963292587        3.77111904657072       -0.64366920115981
H            1.71980737887804        5.08669399802263        0.04110294964122
H            1.03454231482911        2.46296501940197        1.49526360481609
H            0.28134738510396        4.02201004605130        1.84053575006319
H            1.99628707091263        3.76292060485038        2.17458534710109
