52
 energy: -10.426224952072 gnorm: 0.000724529398 xtb: 6.5.0 (97a52f5)
C            1.37546572185219        0.80391702449798        0.62473322239123
C            2.82077938837510        0.35762817701381        0.54559852391841
O            2.97512383011026       -1.00021995031624        0.88276133057868
C            4.30052882822695       -1.33806208529579        0.88772803573606
O            5.19834775122824       -0.56687090866831        0.60397410705251
C            4.62508056054368       -2.73419776946689        1.28049159959807
C            5.61175447492915       -3.14278964389805        2.22499861270092
C            6.46422354294299       -2.25801185545591        3.02921535678055
C            7.79080093088095       -2.50619798563785        3.11877482110450
C            8.64649076908558       -1.66292665107192        3.86917579314756
C           10.02581139091341       -1.88307193086526        3.95620253041325
C           10.82232358427351       -1.03448075613627        4.67894197760195
C           10.26529042112209        0.05673765615405        5.33260278457356
C            8.91769109247567        0.29092636971490        5.26121120953744
C            8.07884192051711       -0.55844721883154        4.53321098290788
O            6.71976399654843       -0.29568462733080        4.49296384304849
C            5.88700674506334       -1.13424284485520        3.78351695257964
O            4.67540136178507       -0.98275484546653        3.78710161137404
N            5.68686474732531       -4.46428326166132        2.27278435603402
N            4.77542925187064       -4.91392332377226        1.42344796299027
C            4.59704458849915       -6.32818714949582        1.18956913573055
C            4.82742508839793       -6.87395975777543       -0.06441513847294
C            4.66950924901669       -8.22923817636379       -0.27137661066734
C            4.28659707163125       -9.04417901106524        0.77152754879529
Br           4.06868906821539      -10.89296208971856        0.48575476832112
C            4.06184001497772       -8.51252070787171        2.02260568830253
C            4.21887825440690       -7.15761014643304        2.23349404125888
C            4.08715117398370       -3.89413789350895        0.77386541023255
C            3.06789203777871       -4.05229513548981       -0.27899510784065
O            2.38242551623601       -5.05765411573629       -0.31801852107369
O            2.97244770591896       -3.03702028607627       -1.19155070995857
C            1.96797876634417       -3.31771045467962       -2.13841225269491
C            1.84461484998367       -2.22397738597061       -3.17903496820649
H            1.25227015772483        1.85322647818667        0.35130431786763
H            0.98881012343317        0.66839567924560        1.63521471407565
H            0.75290603228628        0.20444084543849       -0.03973304843841
H            3.45875901334227        0.93390600621298        1.23126537491727
H            3.23260089032094        0.48942341557640       -0.46488292155684
H            8.20556425486986       -3.34735351937181        2.59400941918728
H           10.45534418099657       -2.72769522939365        3.44512761632402
H           11.88357915554386       -1.21167362005734        4.73965622547189
H           10.89710005396703        0.72146633186040        5.89877750676870
H            8.47650098587617        1.13235259845231        5.76587975781832
H            5.12081649974511       -6.22552795049544       -0.87181756244081
H            4.84077650123587       -8.66207729239884       -1.24403769099297
H            3.76343531496541       -9.16502701528617        2.82766969410906
H            4.04715648443924       -6.72831180477108        3.20526402630670
H            1.02989382583761       -3.45595708706899       -1.58277195445746
H            2.21524303148510       -4.28566785884864       -2.59674639519183
H            1.60686857807515       -1.27120288065064       -2.70607444032922
H            1.06854332225529       -2.44036700764214       -3.91502185394109
H            2.78822789813612       -2.09245134745709       -3.70891168329764
