58
 energy: -11.389152653960 gnorm: 0.000824240321 xtb: 6.5.0 (97a52f5)
C            1.25420301470000       -0.07736019236297       -0.54316710530446
C            2.72927732490927        0.14904757657813       -0.28367935184943
O            2.98223397043406        1.41623812776388        0.27583388576991
C            4.32827859169350        1.60240470817230        0.43854484053393
O            5.17020130132216        0.77300014256424        0.14644908158944
C            4.74659898027055        2.91020730195232        1.00594307070089
C            5.79509773567542        3.75098660490553        0.52994360026018
C            6.62958130510818        3.51026805194900       -0.65480159952769
C            7.97301925087318        3.64017310432569       -0.56649876744298
C            8.80993500763810        3.39525653983603       -1.68286450489851
C           10.20377719134768        3.49807399466373       -1.60945334512463
C           10.98023731560315        3.23614609236119       -2.70742940745242
C           10.38796671061991        2.86404307392117       -3.90708184584325
C            9.02558328454628        2.75763945184005       -4.00130590621194
C            8.20658734328354        3.02012929470458       -2.89862793966031
O            6.83181701366169        2.91198816267049       -3.03440522542873
C            6.01905304232293        3.17985164745850       -1.95263047852719
O            4.80159244457106        3.17645869006497       -2.05132870727242
N            5.94540187854829        4.79986705595886        1.32561462506487
N            5.02444128284279        4.67713510721434        2.27075981707457
C            4.90983799226127        5.63733847766073        3.34381990250158
C            5.00906402903393        5.24307368225461        4.66570816417787
C            4.89830083381287        6.17216666217412        5.67326924372078
C            4.69045387096858        7.51607265753873        5.39164720540676
C            4.57339240883235        8.49659421480492        6.50830075515618
C            4.61702152909052        7.92656434023996        4.05602616399788
C            4.39716466305428        9.35583644621332        3.69695241833674
C            4.72182783270551        6.97651908734276        3.05343116984015
C            4.25052953602891        3.52916626109464        2.12930869976257
C            3.19413572050247        3.05884317180267        3.04567056165577
O            2.50751505154835        3.86254835341572        3.65075983064876
O            3.06900817213348        1.70170366009481        3.17937633405561
C            2.02858058800537        1.38679041923909        4.07574978023678
C            1.86496546001715       -0.10816063691112        4.25723243446428
H            1.05725275784372       -1.06124760964969       -0.97228160116976
H            0.86696104633068        0.67583381878501       -1.22954445315516
H            0.68489925151599        0.00884906040470        0.38226929299785
H            3.31633413629323        0.08216048202367       -1.21105975077956
H            3.13781206873007       -0.59929577778457        0.41006716930017
H            8.41496373885757        3.91273228915065        0.37427675317127
H           10.65994450115307        3.78334167349393       -0.67714848471867
H           12.05264664314743        3.31724127332417       -2.64097604183588
H           11.00407603855714        2.65852651203193       -4.76706924796161
H            8.55801438443213        2.47184111428415       -4.92686486968241
H            5.15915709445204        4.20151900725529        4.89106276243496
H            4.96818559662674        5.85608993825143        6.70004090444641
H            4.41337049199240        7.99240253958035        7.46159419485353
H            3.73186019754087        9.17175727384265        6.35205062862595
H            5.48063334189387        9.09478507827412        6.59661194096826
H            5.02964340546062       10.01423409146584        4.29351200299420
H            3.35672137649490        9.64043275644468        3.85968324055730
H            4.63307571968069        9.53961787468695        2.64825482074220
H            4.65446984682484        7.27504269036663        2.02305934719807
H            1.11180974890063        1.84867280672396        3.68290976556413
H            2.25645137497839        1.88637110976001        5.02754984595426
H            1.64324379095846       -0.58771365707634        3.30387583794098
H            1.06203830190438       -0.35335278451041        4.95430367174957
H            2.78762346746562       -0.55155289464142        4.63236486938942
