52
 energy: -10.399055367375 gnorm: 0.000773623432 xtb: 6.5.0 (97a52f5)
C            1.35414095396435        0.94004804365548       -0.23215952705156
C            2.79852987636859        0.56304681315513        0.02513957950418
O            2.95739527257153       -0.12173619050737        1.24445394538710
C            4.28331783213251       -0.35172543539079        1.48910927145814
O            5.17889135627019       -0.02549658655696        0.73211338722027
C            4.61056913325790       -1.03187358771922        2.76878700032143
C            5.61169228930102       -0.64373480813541        3.70610351150082
C            6.48001444921473        0.53663220439872        3.61325445363529
C            7.80621717442138        0.41267005944852        3.84969936627941
C            8.67671634250106        1.52564448857634        3.75039351942839
C           10.05564230995345        1.41863255378157        3.96402555152935
C           10.86671230587145        2.51610529137520        3.84178794065736
C           10.32484149477171        3.74860574716151        3.50253388947464
C            8.97763900629789        3.87615775348374        3.28918088873737
C            8.12452271882500        2.77513664641707        3.40822026148749
O            6.76658141918935        2.94505629163143        3.19544054575892
C            5.91954042409133        1.86503509965007        3.32068872685130
O            4.70889360499030        1.98884151434856        3.22119768345432
N            5.68047080416057       -1.51946417575229        4.69832661553834
N            4.75087468580760       -2.42785866112315        4.44933986243750
C            4.54623978817805       -3.56057756751391        5.32342686287538
C            4.81783462288221       -4.85001575169037        4.88579586322243
C            4.63029926647190       -5.92136822549871        5.72733723495777
C            4.17344440051391       -5.71384658604658        7.01863730853886
Cl           3.94205581185716       -7.05712962780684        8.07679966009863
C            3.90565405349582       -4.42928308766337        7.46289919430264
C            4.09369521352441       -3.35921685449590        6.61963883155882
C            4.05686531455939       -2.18831183682444        3.26889896455543
C            3.01989473852300       -3.04750300466597        2.67107824315075
O            2.33007125463642       -3.75532433203088        3.38193450966356
O            2.91460879031464       -3.01567815853699        1.30713961779067
C            1.89603490948458       -3.88503105234259        0.87066155612236
C            1.77093513118414       -3.90201306487567       -0.63890656945294
H            1.22682102658467        1.46268244454937       -1.18163749175299
H            0.98059865783882        1.58495561977611        0.56366350659145
H            0.72330297563582        0.05111676390570       -0.24673987901685
H            3.44572927838000        1.45110878147850        0.06815461355649
H            3.19633239094851       -0.08820418620141       -0.76584557157592
H            8.20870367745207       -0.55250819915946        4.09761574909619
H           10.47339514450945        0.46082794495929        4.22320825711766
H           11.92760643231379        2.42374107009520        4.00741439655457
H           10.96793184609162        4.60829738772872        3.40731795346903
H            8.54802343804749        4.82724848993371        3.02777923367201
H            5.16839284830273       -4.99719640136836        3.87877445961404
H            4.83252073339044       -6.92668726347405        5.39744564167864
H            3.55101980672250       -4.28545783933198        8.46991555902967
H            3.89072510932202       -2.35524876118235        6.95025617786547
H            0.96376865549204       -3.55652205092580        1.35129461428234
H            2.12873633878532       -4.88298243598770        1.26852269792846
H            1.55114545156987       -2.90309104420692       -1.01559332388461
H            0.98208831054190       -4.57449927095146       -0.98016530711626
H            2.70874112848053       -4.21803496154503       -1.09637903810554
