55
 energy: -10.937912229884 gnorm: 0.000540907147 xtb: 6.5.0 (97a52f5)
C            1.31449169544557       -1.05089911381883        0.72166132417417
C            2.71907687892457       -0.70084404563825        0.27565867030476
O            2.95467196635527       -1.06016391003683       -1.06489481515367
C            4.26144526663566       -0.82551164659454       -1.39580216517133
O            5.08282342825336       -0.35343891257476       -0.63137955485248
C            4.66507298474028       -1.18959785346085       -2.77925164933774
C            5.81682783509352       -1.93926050373767       -3.16087609493324
C            6.79611803424252       -2.55239646917519       -2.25480092160349
C            8.11795744876887       -2.40790222342938       -2.50245462224338
C            9.09267227112469       -2.96849527489864       -1.64077740958863
C           10.46571876568460       -2.81404110256940       -1.86352821817021
C           11.37760122461382       -3.35599835308482       -0.99647235814481
C           10.94479875059546       -4.06450922445361        0.11664948158592
C            9.60569341331094       -4.22889130443732        0.35323018265236
C            8.65112997879476       -3.69054287812841       -0.51532016225328
O            7.30574266172721       -3.88924291899198       -0.25129538768885
C            6.36086669808788       -3.37179594253332       -1.11243644723884
O            5.17019286800985       -3.60067849161358       -0.96576321718539
N            5.91393972959458       -1.99858147133612       -4.48073897744547
N            4.86188078164968       -1.34678618346853       -4.95392438210503
C            4.64755069364482       -1.18021522719705       -6.37353196443644
C            4.75379080650669        0.06939641098112       -6.96144812231644
C            4.55922039038826        0.21380934961645       -8.31567712837826
C            4.25977744408104       -0.88638403208223       -9.09328997163473
C            4.15145775522325       -2.14809181172262       -8.52513643060926
C            3.83072119800391       -3.34234043320018       -9.35341724878525
C            4.35300044518512       -2.27960939304582       -7.16253420707538
C            4.05307553832065       -0.81726681717044       -3.95350896430083
C            2.86715232270314        0.03678371646570       -4.14640063553546
O            2.20743431123467       -0.06014593287508       -5.16544276555919
O            2.58930453991161        0.93099448778356       -3.14787306007176
C            1.43699336892688        1.67860295763491       -3.46244658002399
C            1.08586772921949        2.67317573137930       -2.37528875235941
H            1.12763852161743       -0.76549784513014        1.75825175977957
H            1.14030460620227       -2.12316335323458        0.62866155993765
H            0.57729434506841       -0.55038100721612        0.09375077887442
H            3.47518379256186       -1.21568368883155        0.88575937809048
H            2.91588070829094        0.37692547207411        0.36213467598698
H            8.43404667762835       -1.83908155348484       -3.35767876997920
H           10.79794434657951       -2.26121068402544       -2.72536873042007
H           12.43274532224138       -3.23187624498265       -1.17646320110691
H           11.66666568561184       -4.48724846225252        0.79610765644844
H            9.26115656328298       -4.77867013683291        1.21117833600082
H            4.98268110937555        0.92043568194437       -6.34364221940248
H            4.63888342011690        1.18823217680625       -8.76944692431102
H            4.10721336458961       -0.77056141710704      -10.15248023106621
H            3.63270046520338       -3.06677467721364      -10.38943942384233
H            2.94655559934616       -3.85260915740135       -8.97019666026790
H            4.65966062059137       -4.05061650617744       -9.34788046173778
H            4.27602967488743       -3.24711556330753       -6.70035545042091
H            0.62187296416427        0.96103525504425       -3.63145985360037
H            1.62734222246384        2.17958341802404       -4.42197693604680
H            0.90195005577651        2.16016675881473       -1.43129750047024
H            0.19719455226892        3.25647797914085       -2.62198877805346
H            1.91124615712548        3.36558237276354       -2.20861644890584
