52
 energy: -7.265806950406 gnorm: 0.003350351352 xtb: 6.5.0 (97a52f5)
C            1.19368914314767        0.72953778852523        0.09067656825596
C            2.46683649493869        0.36907480090760        0.68439714776701
O            2.77137905345481        1.06188629522496        1.84152423197983
C            4.12038289888075        1.28402819737238        1.92410149515083
O            4.92260219439867        0.93054509602347        1.07865052393303
C            4.55972878351752        1.95366360325408        3.11855925043126
C            5.69353585315929        2.72796102147946        3.29723114859392
C            6.49617405486398        3.26410013953527        2.19013684171511
C            7.81629046284007        3.17795585086344        2.22618326977417
C            8.62208185012026        3.64282796801292        1.20001751933772
C            9.98844612261597        3.54569050482931        1.21653932597903
C           10.70491858383762        3.98559198689903        0.20996292970645
C           10.12813394069757        4.53498442481687       -0.85420629659584
C            8.82481353357887        4.66022926602316       -0.93696240508172
C            8.00589741645982        4.22828583845596        0.07258899204709
O            6.62844675838437        4.36730220278914       -0.00738704607151
C            5.85344006123996        3.93998173784263        1.05000749551418
O            4.64660950840418        4.12645098508544        1.06833301465716
N            6.05940736293420        2.94257320535823        4.55676515040198
N            5.29671199562646        2.37434200305847        5.41837907324720
C            5.47317412063422        2.48147758483840        6.75002720513394
C            5.99380349196309        3.52419200391231        7.36463106536691
C            6.28196768092734        3.67972902516171        8.64253011995841
C            6.20414829934654        2.85918296610776        9.67590431127014
C            5.82073318968350        1.60909063632082        9.73459648191788
C            5.29272090344929        0.94997500888587        8.71482639944214
C            6.24306647281302       -5.77372525331314        2.39077126014565
C            0.24397760958414       -1.89197197949678        4.39239614185347
O            0.82100849734812       -2.99368949517469        4.74699895556907
O            2.09213067794366       -2.51259990576316        0.33618935207568
C            1.22196034596288       -4.01022955313964        4.14318172755588
C            1.06301580944490       -3.99472910193439        2.74558941037721
H           -0.11730895361971       -0.38238425739967       -4.36617112280536
H            1.17750165597828        1.75841169600959       -0.20644082943489
H            0.37270969259102        0.54152843806553        0.75315877653872
H            6.08407794703962        1.70877976149852       -0.51788335333993
H            2.55865266469655       -0.69280096890472        0.87963358665377
H            7.68452959728097        1.30896047663425        5.26337244985191
H           13.61263340396423        1.36622685717631        4.69806337501046
H           17.47759704309310        4.32704587280522       -0.93515902481998
H           12.60751840004290        7.68716741644708       -6.16112737307735
H            4.45739331736587        4.92233051534645       -0.86976496664465
H            3.47106884019019        3.88530925595383        4.97548760735140
H            1.74063808384723        6.67620186977275       13.95561111646845
H            4.62409939224389       -1.45578001299706       16.01461086319257
H            4.37851505433677       -0.40169579124494        7.73768124379609
H            5.30042280853673       -6.14312784078208        2.23253860055581
H            0.03092767676769       -3.82946035482161        2.50409677971592
H            1.68308902760539       -3.22389785766856        2.32449194874597
H            0.83061460589927       -2.92821701983950       -1.00315755995051
H            1.83152498965372       -5.45429661664845        4.57935301137542
H            3.78939157812959       -2.96893629182912       -0.35419578870149
