80
 energy: -16.487483128334 gnorm: 0.000591572045 xtb: 6.5.0 (97a52f5)
C            0.81054634421504       -0.62862312993564       -0.24788421075376
S            0.03017426010429       -2.05394780214277        0.38315790594688
C           -1.64566362579295       -1.60892858419564        0.14404496074576
C           -2.63550737574674       -2.27726231301564        0.73932501123030
C           -4.05712492812849       -1.98860676301427        0.59790820537138
C           -4.97512754202453       -2.60253486415201        1.45283459418183
C           -6.32190837384175       -2.34874868685311        1.34756555526113
C           -6.81432816114583       -1.47492402465525        0.37720978549646
C           -8.26390367293604       -1.19969238485176        0.26918263594353
C           -9.04910874684077       -1.03944621555913        1.41168702686010
C          -10.39602554957894       -0.78338169649108        1.31412601546042
C          -11.02204466601642       -0.68404272917349        0.06991077917003
C          -12.45194883453500       -0.40999304971207        0.00142436094561
C          -13.21075489137159       -0.52270522729017       -1.09049695880819
S          -14.92111570204891       -0.15116477659953       -1.05780752068427
C          -15.42912527131115       -0.95861091839169       -2.51676336019506
C          -16.72573450491966       -1.18561293263999       -2.82061958184815
C          -17.80589458130203       -0.72710846821391       -1.91652926832867
C          -18.88250997762324       -1.56004749526748       -1.61409705326655
C          -19.87772974609514       -1.14352428695883       -0.75745867804033
C          -19.81834578468676        0.11129246038110       -0.18471332129099
C          -18.76154331822860        0.95086065360367       -0.47432170599652
C          -17.76773033491328        0.53809320852759       -1.33239516081236
C          -17.08330256024990       -1.91506834956076       -4.05837638295652
C          -18.22997509814347       -1.57382351152988       -4.77501883603927
C          -18.57063017056532       -2.24759573255401       -5.92738445207798
C          -17.77477729998803       -3.27738183283417       -6.38797944410037
C          -16.63735825138913       -3.63266886668453       -5.69068850475898
C          -16.29377117849847       -2.96054527673590       -4.53784524489468
C          -10.23573400327102       -0.84295921024853       -1.07356104902423
C           -8.88690010814632       -1.09249989521224       -0.97513341497758
C           -5.89882971698285       -0.86824040004538       -0.48428492772726
C           -4.55058928293833       -1.11697355128836       -0.37569705406124
C            2.12177052456933       -0.36203900961999       -0.06166704922391
C            2.70951330864647        0.89003921526597       -0.58995664145424
C            4.01386989349809        0.90621300304121       -1.08316107938240
C            4.57119667386935        2.06782222888103       -1.57092583130964
C            3.83888429965044        3.23814521431791       -1.57514360835555
C            2.54673932907008        3.24319542955741       -1.08868588975021
C            1.98619527113940        2.08284004839253       -0.60064255083185
C            2.98606391399822       -1.30101136355930        0.69045960428632
C            3.89348182126074       -0.82849158895603        1.63797250527749
C            4.68317239754827       -1.70044300522467        2.35484835616384
C            4.58289555729566       -3.06080125615385        2.14138107575749
C            3.69257020147086       -3.54698733929109        1.20507018788174
C            2.90471860679814       -2.67750540984484        0.48543543018997
H            0.20196357092028        0.05877923880609       -0.80092977765369
H           -1.85089113522386       -0.77231291827681       -0.49312436608346
H           -2.36663803919763       -3.09185089010273        1.39053833679846
H           -4.61315715589634       -3.28112283451103        2.20654290024349
H           -7.01516012729384       -2.83777282410745        2.01033624981024
H           -8.58246902255285       -1.10398877307795        2.37949713739542
H          -10.98614376798714       -0.65994761804731        2.20627311246501
H          -12.93352522903889       -0.10228749310132        0.91432724481973
H          -12.79252570942039       -0.85248448716723       -2.02034413751402
H          -14.66015803849450       -1.28887569733014       -3.18630185111530
H          -18.92194293950311       -2.54118022745385       -2.05521126769837
H          -20.70328905740882       -1.79894974643298       -0.53232711077750
H          -20.59719576877642        0.43591214822940        0.48602030466227
H          -18.71686994444731        1.93226523815292       -0.03077106145721
H          -16.95446472572387        1.20096636395572       -1.57166046390693
H          -18.84794261017902       -0.76856847426499       -4.41662809298380
H          -19.45949272033642       -1.97029707268144       -6.47040823704060
H          -18.04182172502794       -3.80411267283208       -7.28971841858622
H          -16.01829084191565       -4.43974452481917       -6.04750302233408
H          -15.41705549879348       -3.25332330236289       -3.98653795039964
H          -10.68931421266174       -0.75594030401647       -2.04496657683078
H           -8.29726388834847       -1.22085068483095       -1.86660689453850
H           -6.26101115266470       -0.18575522849782       -1.23388470137612
H           -3.86779823664401       -0.64269154610920       -1.05828189243004
H            4.58280360477069       -0.00761766384468       -1.08170032990455
H            5.58042114096557        2.06308522260880       -1.94949943822175
H            4.27608321478377        4.14694433393762       -1.95568166236910
H            1.97650585240450        4.15792191564363       -1.08730687586061
H            0.98583673418825        2.09502671555317       -0.20387232974754
H            3.96418764278861        0.23215543463775        1.80792171260636
H            5.37895182866923       -1.32024146684136        3.08504411306789
H            5.20047462861964       -3.74235287766982        2.70355532867892
H            3.61669290375949       -4.60875475282268        1.03526785379056
H            2.22438128180482       -3.05711204373976       -0.25689305066321
