47
 energy: -8.884225863866 gnorm: 0.000780582369 xtb: 6.5.0 (97a52f5)
C            1.91579719802200        1.12175574809690        0.04159939168626
C            3.18796671076403        0.34466702587339       -0.22639391169401
O            3.40824834484443       -0.65862057367943        0.73768536346936
C            4.54112989337703       -1.36620387821333        0.44177118457285
O            5.23094842446164       -1.17025349681579       -0.54135528748331
C            4.88888491154047       -2.46778109435373        1.39169783886002
C            4.26428216288801       -3.69515498655946        1.39347425762916
N            3.28681223050672       -4.13980916498045        0.53395738547902
C            3.06672892157911       -3.62847255575831       -0.62430079979664
C            2.02929773078218       -4.06265348784714       -1.49370765250689
C            1.13259670744755       -5.06409093649908       -1.24604406535297
C            0.20935489348275       -5.27074602440996       -2.30260891787388
C            0.39342047805993       -4.43648411831311       -3.35177236422388
S            1.71845534077419       -3.36733667661079       -3.06133309068442
S            4.89914986641887       -4.65768116328647        2.68678949135575
C            6.01022764977610       -3.43365723579493        3.21795316739778
N            6.82279787772701       -3.63259491880910        4.31114837618252
C            7.84834776684404       -2.92294657561444        4.61854951745535
C            8.64251319173638       -3.14796883417764        5.77524471462496
C            8.44799586993544       -4.12256354340507        6.71395275751581
C            9.40217621104243       -4.09588843164525        7.76326261114400
C           10.32253415707074       -3.11252571439748        7.63199108654242
S           10.03317579975239       -2.18860432217046        6.20160394874612
C            5.88974329873656       -2.32402031728190        2.40631539496731
C            6.65472411097734       -1.04941884900962        2.55571775662048
O            7.86247745806680       -1.03227114940794        2.40677264210435
O            5.90860513681050        0.05689090664817        2.85813634545459
C            6.73127389515805        1.19702349347534        2.94484582477437
C            5.93249701796281        2.45993342826394        3.19197528212974
H            1.74589103315404        1.90356505398116       -0.70047450082775
H            1.95367356783069        1.58975342332856        1.02547844234394
H            1.05246953846046        0.45597007274518        0.03634495766146
H            4.07052859096021        0.99923512116881       -0.21956563245520
H            3.16067826156388       -0.14479690235812       -1.20979437149385
H            3.70907810854585       -2.83948517003450       -0.97294944638493
H            1.13524734394859       -5.63601782163327       -0.33095867589656
H           -0.56548510973573       -6.02304147656783       -2.26929056284686
H           -0.19481295841745       -4.42575240149633       -4.24978354148200
H            8.14508508713665       -2.12770781279065        3.96095268394680
H            7.64157912992777       -4.83741677722292        6.65476798043540
H            9.39162230647231       -4.79609467965969        8.58614541825846
H           11.12878324181343       -2.91802116959451        8.31390148448835
H            7.30159153239455        1.25826173857273        2.00715900000911
H            7.45701016117373        1.01405749244092        3.74932387480606
H            5.21497040132038        2.62246071288476        2.38763274907604
H            6.56914225161806        3.34347432496171        3.26217423242728
H            5.36279425529923        2.37717371795414        4.11783765883233
