53
 energy: -10.600489398979 gnorm: 0.000339898158 xtb: 6.5.0 (97a52f5)
C            1.56167799404514        0.08868401803111        0.09295848756713
C            3.03601661395646        0.15992127725385        0.43343480084152
O            3.28091587922996       -0.15641135525590        1.78375821130526
C            4.61502874341813       -0.04743900913332        2.06791113771029
O            5.45981477682141        0.24859888208152        1.24228546423504
C            4.99813293202994       -0.33257377109097        3.46580947902481
C            5.95786598007543        0.27949369716674        4.23927035279330
C            6.81146602213804        1.42745488682925        3.84722130329899
O            7.98715683541921        1.45017223575310        4.16046473680942
O            6.19153062874425        2.43708436360452        3.16293150176533
C            7.11114971752646        3.42507128018727        2.81675763362297
C            5.94338295448564       -0.40269188789896        5.49269836176348
C            6.72423790841000       -0.05265512305192        6.68210252356096
C            7.05234582596447        1.23514524576245        6.94322145056131
C            7.75102763427293        1.59517180975360        8.12082370404585
C            8.08231005905497        2.91848572300595        8.41758851825452
C            8.74595065726085        3.25854210809268        9.58558907872957
O            9.02319977345464        4.61725034169681        9.79617354402922
C            9.62938104809925        4.92001621398614       11.02990708772580
C            9.09141093232846        2.22660483405694       10.47409069693287
C            8.77690945392307        0.92513248837752       10.19688335164558
C            8.10131674430965        0.57694884002020        9.02407307480019
O            7.79518483359247       -0.75409129952046        8.78421204237893
C            7.12643147393472       -1.10057830972160        7.63185317379585
O            6.87017620312516       -2.26777466561906        7.37739926811676
N            5.03024536232161       -1.36141810970551        5.47534926734456
N            4.47212522173649       -1.33179187271098        4.27569255961448
C            3.45565426999984       -2.28210299683743        3.89402187211707
C            2.38945710969632       -2.52385890140417        4.74443713336126
C            1.42227377829763       -3.44284938595388        4.40460828676744
C            1.51450889321151       -4.13370390357951        3.21357718177583
C            2.57791876820511       -3.90508855717261        2.36426378487073
C            3.54537659169269       -2.98625057625754        2.70306437165030
H            1.36707292925283        0.33815810821365       -0.95148457777390
H            0.99239833923874        0.77649724104665        0.71870839196318
H            1.17325731205966       -0.91238944381331        0.28105346501524
H            3.44348497699690        1.16607885802633        0.25966886905742
H            3.62777352512920       -0.53692306856295       -0.17647952560178
H            6.59166646366656        4.21602663641579        2.27073532388220
H            7.88530160283674        2.98184669500900        2.18537459859536
H            7.56301035206798        3.83053517421228        3.72510311315975
H            6.76589692263327        2.00669353899889        6.25227923280237
H            7.81559748564134        3.70302593664333        7.73377989965746
H            9.75602475985503        6.00219901861021       11.08959284346638
H           10.60890401515168        4.44258165875634       11.08662098097270
H            8.98621615757912        4.59067782703298       11.84765412267366
H            9.61129239747642        2.45993694759988       11.38528924779709
H            9.04283402654189        0.13784805901083       10.88035625597971
H            2.33339337974567       -1.98296296627248        5.67321229514530
H            0.59373954766515       -3.62353423301272        5.07014200885413
H            0.75719002389713       -4.85305977991708        2.94791390592466
H            2.65148923230543       -4.44620919638195        1.43484633789297
H            4.37881492946789       -2.80092553236161        2.04781976769516
