59
 energy: -10.596080162770 gnorm: 0.000605004749 xtb: 6.5.0 (97a52f5)
C            1.47226443252379       -0.44302568897835       -0.55531288018304
C            2.87072137990604       -0.52975897150636        0.02042749382557
O            3.22049221796546        0.62482462176929        0.75095560064499
C            4.49861831100193        0.51798120361416        1.23695364965512
O            5.20196628130203       -0.46676657025765        1.08981995246797
C            5.01347588216088        1.69629984888716        1.99059565061813
C            4.59232443892323        2.17262586487927        3.23944692579069
C            3.53550861089519        1.67199329330746        4.07590417144856
C            2.64969021951062        0.72552408489850        3.72049586339032
C            1.59733398559234        0.19007846781757        4.55925626623255
C            0.75245943334282       -0.79885530240208        4.04999818163919
C           -0.25712309369912       -1.33249459267803        4.81810665437996
C           -0.44823967457541       -0.89343139936064        6.11278661317287
C            0.37634742623067        0.08200686601361        6.63668250835313
C            1.38801819790512        0.61880667851027        5.87233813992428
O            5.38726561927698        3.23328030107827        3.61731861352658
C            6.29324923633552        3.44553315925401        2.62007952097354
N            7.20728754973603        4.50713961888492        2.65872979600075
C            7.50750338467435        5.44119575484541        1.54211900140251
C            8.88899053201133        5.16366237392519        0.92103962837214
C            9.22183306447869        6.18229814763026       -0.18479008367418
C            8.12115089451152        6.21263640834124       -1.26335228870523
C            6.73884460034501        6.49191857446322       -0.64135780403044
C            6.41254925360041        5.46378715713812        0.45632811182369
C            6.11143783350051        2.48513688592819        1.60543437008696
C            6.92311398534254        2.27093147557815        0.38492138042622
O            8.14167609295673        2.27412908081934        0.44009778686614
O            6.21259129744184        2.09124674085166       -0.77557661515653
C            7.08380038537197        1.86138909575745       -1.86046206101629
C            6.34239858169010        1.73752387039332       -3.17546080621365
H            1.20277285324727       -1.33722106160777       -1.11985924421758
H            1.38365333410310        0.41571848549234       -1.22109425141079
H            0.73627206076786       -0.31054711477515        0.23783533623223
H            3.62275790859368       -0.65356988276828       -0.77080523460360
H            2.97517538098579       -1.39120106693572        0.69400967935840
H            3.47279365012536        2.11107449831230        5.05349413753681
H            2.70300052849916        0.33955752550610        2.72051236395802
H            0.90119767293155       -1.14396928479384        3.04127335353197
H           -0.89948372611334       -2.09476719962451        4.40850778506110
H           -1.23891771234128       -1.31164971689392        6.71370498014411
H            0.22808687791657        0.42343142184151        7.64813674581039
H            2.02411900659159        1.37481484756908        6.29603403842979
H            7.23736571310038        4.99439047125374        3.54721076843806
H            7.54799180498828        6.45980307865479        1.96449141637133
H            8.88957209155946        4.15279770100210        0.50607415259158
H            9.65636736896414        5.15829806835282        1.70470277720131
H           10.19925340175321        5.95937045337352       -0.63420797864628
H            9.32417917350141        7.18013362551103        0.25840787316553
H            8.09620238388113        5.24699992341320       -1.78170568735462
H            8.35602002106168        6.95570091432565       -2.03756902458717
H            5.95787318333442        6.49571184592142       -1.41407461372525
H            6.73005017899446        7.50028201517174       -0.21055998825630
H            6.33561852155133        4.47113358242134        0.00576684920816
H            5.43385927812518        5.65675945088239        0.91274790986823
H            7.65152677106355        0.94906037781233       -1.63158802862900
H            7.80702450246283        2.68743713048682       -1.88572860967020
H            5.62689034054978        0.91599793315375       -3.13690469458197
H            7.01778528505014        1.55839505733924       -4.01378520602393
H            5.77687178450180        2.64564987020060       -3.38531094721991
