31
 energy: -5.413464842964 gnorm: 0.000649156962 xtb: 6.5.0 (97a52f5)
C            1.05963675070216       -0.57480813165727       -0.60534986993510
C            2.53863545546408       -0.25998579344115       -0.51601398292213
O            2.96592096181287        0.58409400173530       -1.55989415907022
C            4.32722215981901        0.74619768806309       -1.52225754306911
O            5.04268426020010        0.18339080066747       -0.70833225646400
C            4.92963086553690        1.59152257412411       -2.57409519149992
C            6.17183715300663        1.30829722157713       -3.09863223807658
N            7.00402209649940        0.31927333519595       -2.64978305832659
S            6.51723134623523        2.36568556146920       -4.44098720142090
C            5.00038064288938        3.21286425395559       -4.29244196768487
N            4.60328519777600        4.24472445843837       -5.09825991362389
C            4.27439917732083        2.71225926357966       -3.23367270762974
C            3.01575377646837        3.34473225904047       -2.79135593271414
O            2.31944266123998        3.94680605720068       -3.59366322564392
O            2.71921055714423        3.26809332798466       -1.45471074486522
C            1.50579220253792        3.92807123957136       -1.17810877486333
C            1.14504200932949        3.86730990874603        0.29176905613424
H            0.72512449084878       -1.21805898384317        0.21027543950284
H            0.83094246516889       -1.07448015153636       -1.54714187773987
H            0.47049094005828        0.34190651326482       -0.57768788577913
H            3.14801812394784       -1.17347880108635       -0.56492720720759
H            2.79011690242509        0.24309490486832        0.42795837121535
H            6.80679200918398       -0.14208878306215       -1.77448165929454
H            7.96770018381557        0.26386745479267       -2.92738939151067
H            5.06564794561732        4.45915561114087       -5.96364391593346
H            3.65426799033310        4.58350395054577       -5.05030180472707
H            0.73341843024629        3.45914043802259       -1.80389108973664
H            1.61407226196408        4.96551509746718       -1.52495117597228
H            1.04635214639374        2.83255189787023        0.61961689464198
H            0.20694224652219        4.38131562358630        0.50761751910588
H            1.92930658948973        4.32210720171349        0.89715749511671
