61
 energy: -11.320854024158 gnorm: 0.000888888500 xtb: 6.5.0 (97a52f5)
C            2.17165874149599       -1.09510624249250       -1.12843886496941
C            3.30091039974131       -0.52925667132374       -0.29246116927713
O            3.63650620012069        0.78634436935952       -0.67204878484582
C            4.70860605741038        1.24499935518650        0.05438527493635
O            5.23014259245831        0.61936216217427        0.96397243850601
C            5.22991171370053        2.59230906073887       -0.32330577434492
C            4.99600656201285        3.83145621072941        0.30504502231775
N            4.14561167432730        4.13541329907865        1.37480986630998
C            2.80127680118235        3.55962790404700        1.68442359143908
C            2.04903682625641        3.25850492141163        0.38481340571890
C            2.97148131083558        2.29488563375789        2.52950467720563
C            1.99756298606518        4.58966206600730        2.49299870664379
O            5.76214120542865        4.79241798678109       -0.28588931115513
C            6.48082502272930        4.19365104461435       -1.29547064432122
C            7.37596378294160        4.96324639388370       -2.15671122783181
C            7.72340031114142        6.25647569803745       -1.77561993347766
C            8.53615685711484        7.03384359517660       -2.56367905813334
C            9.02989007417237        6.55307628286630       -3.77699887144813
C            9.90465561494697        7.38857327943302       -4.62748942748523
C           10.88741751918542        8.20248350746738       -4.06352577083721
C           11.70095108904135        8.98067353170240       -4.85706699847832
C           11.55084401068991        8.96491260553976       -6.22882148332249
C           10.58410976871411        8.16666522290851       -6.80589889255702
C            9.76953996722825        7.38585221653729       -6.01597293864274
C            8.67153632634314        5.26118558123398       -4.16396889355751
C            7.86199115492384        4.48483418795006       -3.37219211350321
C            6.18690710261323        2.82709467920912       -1.33031785413931
C            6.80792145536818        1.77251826672247       -2.16932795511891
O            8.00419419627492        1.79405508384316       -2.40030862616617
O            5.96189129513758        0.80452648590391       -2.64386312840928
C            6.67404477391707       -0.15471805693732       -3.39399657561615
C            5.78081558565855       -1.27100676417317       -3.89405198947028
H            1.92033058087812       -2.11794852363975       -0.84272262102898
H            2.43858802912889       -1.09594850669488       -2.18549841800663
H            1.27328943307816       -0.48618027017535       -1.02563693093479
H            4.21167527250526       -1.13607715347790       -0.38737662761801
H            3.04050951604897       -0.51246870837996        0.77404235866481
H            4.18062148565368        5.10217009639423        1.67222900461745
H            2.58702028734460        2.53410475366119       -0.22008477852935
H            1.93326214310029        4.16431855469827       -0.20812573088917
H            1.05791818043764        2.85622005768490        0.58980393941167
H            3.56351520279267        1.55220855057983        2.00410645628853
H            2.00720855953017        1.85105010499988        2.77291011130882
H            3.48601478114248        2.52554833156158        3.46073005044261
H            1.85521165506637        5.50627192495369        1.92237710447126
H            2.51362761728762        4.84359933987036        3.41775408410753
H            1.01413131891877        4.20034064906168        2.75337260672860
H            7.33585060910948        6.63917669574133       -0.84718572532952
H            8.78495511766310        8.03475077328365       -2.25656042912392
H           11.01630137289601        8.20522251232683       -2.99528102164639
H           12.45758379167040        9.60155460943593       -4.40618519891595
H           12.18722178029167        9.57537362338655       -6.84823404082506
H           10.46506154479784        8.15587612042621       -7.87680343621759
H            9.00644662304439        6.77623011977624       -6.46747059266257
H            9.05284119905324        4.86791728631811       -5.09032796038583
H            7.60152683258223        3.49038474681632       -3.68569920297547
H            7.47553503392684       -0.54222307926827       -2.75051174123441
H            7.16001830848306        0.37374195155017       -4.22516728962578
H            5.30705989345157       -1.78753221590107       -3.05951497428557
H            6.33259186390962       -2.00970898223281       -4.47778728238879
H            4.98263298701681       -0.87282626013849       -4.52026840939332
