55
 energy: -10.194793373062 gnorm: 0.000838351715 xtb: 6.5.0 (97a52f5)
C            1.37459473074048        0.56974939703635       -0.80060523094441
C            2.79842745093070        0.47528666579190       -0.29215137109682
O            3.21618957504992        1.65855209353974        0.35060025001566
C            4.50174371039771        1.52675383951329        0.80914147354159
O            5.19119593547482        0.53947320609728        0.62435303796231
C            5.06460014111996        2.70813269934539        1.52453544562124
C            4.48204919151245        3.19785825770618        2.67093755063732
C            5.01625019892926        4.35178116966215        3.28364978969979
C            4.27728984474991        4.68787129726545        4.42840858678325
C            4.64726525779376        5.80115854687029        5.15857412962521
C            5.74475811590531        6.54256555218579        4.72260925853509
C            6.46936121809666        6.20161514845464        3.59273938489074
Br           7.91722012669645        7.33857358656296        3.17826545000018
C            6.12039909524497        5.07510669737332        2.82597114135667
C            6.75742521772087        4.55695211971923        1.62795554236776
C            7.88453009159173        5.16821511935274        1.06396450801872
C            8.47042154039753        4.66017661708122       -0.06115219115622
C            7.95786139609569        3.52139662089583       -0.66953125182469
C            6.86213433177770        2.89425765681727       -0.15093576769843
C            6.22907464116522        3.38660186068190        1.00303750276053
Si           8.95115788702506        3.03079979868128       -2.16378436713172
C            7.91240944305890        3.12637217413646       -3.72297196186899
C            9.73027980173057        1.34161289030710       -1.92033342967213
O           10.15417862657284        4.20888518746230       -2.21643978169034
Si           9.97078516817157        5.30590998416794       -0.95102471095773
C           11.48463508713845        5.24798636593035        0.15573470956999
C            9.65229732231056        7.02072491227845       -1.64238580373904
N            3.26279872348902        3.72321577777131        4.55735578780229
C            2.25104087847603        3.68714679949149        5.59516055527600
C            3.34354438990764        2.77743366036339        3.51484316077832
O            2.62272971751436        1.80808916160051        3.37053512801001
H            1.05175586386520       -0.34822840456971       -1.29450518759511
H            1.27404033917441        1.38937208485431       -1.51214483791499
H            0.68711595570530        0.77120031103504        0.02102746580684
H            3.50496161724810        0.27851707257562       -1.11013807289084
H            2.91183730422439       -0.34354863507016        0.43160630499125
H            4.09559658706929        6.07885864833414        6.03843174192349
H            6.04992572315691        7.41541247046249        5.27800477489643
H            8.30162911854653        6.05198663675683        1.52104472571139
H            6.49015087087045        2.00011053458097       -0.61613178279589
H            7.48010425908722        4.11780307795864       -3.81516110873684
H            7.11183564660952        2.39348464152231       -3.69259461022112
H            8.53620014458883        2.93453154963399       -4.59044350161820
H           10.27950512294606        1.32527130921867       -0.98433155426457
H           10.41780284775351        1.13159758308586       -2.73356331126614
H            8.96609077159542        0.57077898353252       -1.89410546848225
H           11.37636399201491        5.94199150439743        0.98365746294613
H           12.36722082238583        5.51463322293732       -0.41744856932710
H           11.61360862637958        4.24512888977714        0.55067009005871
H            8.75528301080308        7.00884827405089       -2.25345474740269
H           10.49120162105577        7.32980520121107       -2.25807190640226
H            9.52079841310639        7.73687959544382       -0.83688887581534
H            2.71212206838580        3.81462866349523        6.57306121725384
H            1.73542921816581        2.72856277074049        5.56865930161383
H            1.52642119847609        4.48343914989460        5.43438392406905
