44
 energy: -9.134178432182 gnorm: 0.000670299660 xtb: 6.5.0 (97a52f5)
C            0.89302087028067       -0.33249748992721       -0.17744879360202
C            2.39989418617420       -0.35063525271590       -0.33232121394697
O            2.81550514837336       -1.19654806511299       -1.37987370834828
C            4.17623115624247       -1.14012961198180       -1.53142403289029
O            4.91338207215673       -0.49579298065569       -0.80723089279551
C            4.74643598600366       -1.97178718976278       -2.62849335060135
C            4.29464085316185       -1.85521576539316       -3.92145737913837
C            4.80471439976022       -2.71610944322659       -4.92202618422828
C            4.21007138907696       -2.43728772230890       -6.16014614308908
C            4.57828959670225       -3.18609745651533       -7.26396412005033
C            5.53051526692877       -4.18688522290031       -7.09371422663177
C            6.11589103095894       -4.45037265193987       -5.86485512473501
Br           7.38741422240346       -5.84010812576632       -5.84057152938419
C            5.76458537417307       -3.71134235181801       -4.72558830896314
C            6.27294543623042       -3.84008177225293       -3.36566802060439
C            7.22582670871605       -4.77834064645504       -3.02850744828552
C            7.71956843696799       -4.90360765720141       -1.72488163985680
C            8.69617110465489       -5.86834510502510       -1.38105697817708
C            9.15838829705062       -5.96097635543566       -0.10555564727464
C            8.67466375851344       -5.10035059657527        0.89254291335735
C            7.73678547570410       -4.16106360520684        0.59991987145886
C            7.22992066007127       -4.03453030750265       -0.71690600069682
C            6.26587225021717       -3.08117180493706       -1.05466484590977
C            5.76716043921842       -2.96097652227765       -2.34044498402830
N            3.31962493656011       -1.37051229080679       -5.95476982936986
C            2.49344635937087       -0.74624399336041       -6.96958890408189
C            3.33891965764539       -0.96001748382138       -4.60651841535439
O            2.70164475762598       -0.03831642872550       -4.13416882648179
H            0.56909981624227        0.32814389967076        0.62848014670628
H            0.51693412657694       -1.33390171593244        0.03293773316191
H            0.41888810770963        0.00125072249738       -1.10073599714317
H            2.89663957877651       -0.69617360811368        0.58483966863671
H            2.79254299451405        0.65219431909450       -0.55142513569422
H            4.13317330847025       -2.99079860211600       -8.22289669518877
H            5.83254455272047       -4.78311341016730       -7.94018483830773
H            7.61013417417558       -5.44240397567652       -3.79033411009921
H            9.06859508290197       -6.52831655700362       -2.14527119755091
H            9.90236013756078       -6.69917082666378        0.14487955865023
H            9.05262968527702       -5.18804400024627        1.89789710335516
H            7.36753869755352       -3.50193860579040        1.36637621449063
H            5.91322956498310       -2.40700136822779       -0.29629561428669
H            3.11257611493445       -0.40703370095130       -7.79733663015746
H            1.97473460844703        0.10894290642589       -6.54075433467744
H            1.75816961821372       -1.45732157719032       -7.33985210818529
