55
 energy: -10.219751124096 gnorm: 0.000930300332 xtb: 6.5.0 (97a52f5)
C            1.32269934233939       -0.35347503712408       -0.42792805180567
C            2.79409355096235       -0.00291772457665       -0.34556420486712
O            3.10554211625331        1.15756001929178       -1.08260974195203
C            4.43743212927224        1.45843238220999       -0.96500745557035
O            5.23798157973516        0.76877936442114       -0.35954016015507
C            4.89490858245587        2.68433211540290       -1.67850373426687
C            4.30247924014680        3.90765960142891       -1.45375218850615
C            4.72745473615372        5.02906790269575       -2.19709893854881
C            4.00787783203256        6.17409019224087       -1.82847846215280
C            4.29738480566060        7.37100561436844       -2.45727089084875
C            5.28882242018125        7.38732524289593       -3.43074959525221
C            6.00234705648566        6.25119388194920       -3.79427942484470
F            6.95865403401411        6.33776630656541       -4.74910505048973
C            5.72660116948467        5.01894606739089       -3.16564098057490
C            6.37037075947483        3.74778966653214       -3.40434172163774
C            7.39465608529386        3.61145522718943       -4.34945538677600
C            7.99476405722581        2.40076911823713       -4.55535548536509
C            7.59805007686528        1.28555613326679       -3.82613780353030
C            6.60238954352371        1.38025998282367       -2.89693766163850
C            5.95642739400576        2.60445146032998       -2.65752047936983
Si           8.59602013134328       -0.22192262383954       -4.26345397689115
C            7.50963422429862       -1.55034032158853       -5.02234987269476
C            9.55953724413510       -0.84212694725843       -2.77753617523035
O            9.66133419911467        0.36454648811199       -5.42776850016999
Si           9.38373811237700        1.99832529568426       -5.72647957281754
C           10.92542115988146        2.98162010675526       -5.30515592339102
C            8.84865022796833        2.22452758932037       -7.51085320832095
N            3.10671216499664        5.77896657676813       -0.82337709766638
C            2.22245039467388        6.65800654918420       -0.08427536473170
C            3.26012532391959        4.40786073541933       -0.53255324121592
O            2.65929434333927        3.78959609394225        0.32576868460373
H            1.07933058639124       -1.24852925488320        0.14684786269390
H            1.02632562458320       -0.52457122707805       -1.46296335556908
H            0.71274501895102        0.46756495475291       -0.05067296139872
H            3.42476617172029       -0.81602993704486       -0.73054801424108
H            3.10549483590102        0.17956217786439        0.69236543044728
H            3.76026681339351        8.26327043698488       -2.19010058948565
H            5.52675517328192        8.30789113831113       -3.93340855010242
H            7.71203756335950        4.46717468899599       -4.91452783492857
H            6.32347080667372        0.51578448029651       -2.32337451220201
H            6.95905351742123       -1.13525017257113       -5.86087061140256
H            6.80397080166158       -1.93183855769289       -4.29068444470582
H            8.12584665624772       -2.36952150467543       -5.38015127522427
H           10.14284228725329       -0.03185961866267       -2.35110353809994
H           10.23362163486233       -1.63685519307531       -3.08192892759886
H            8.88260514057384       -1.22437223607796       -2.01959191776941
H           10.76270674102295        4.04057634428650       -5.48143206240642
H           11.75510007155859        2.64333007342798       -5.91802468798866
H           11.17932503939905        2.83319244661906       -4.26019783766567
H            7.94519984550181        1.65218262938267       -7.69644624494957
H            9.62919146404206        1.87074490472206       -8.17728912319116
H            8.65185345556635        3.27163935142276       -7.71967651056306
H            1.69980321223084        7.32533822402394       -0.76695203832488
H            2.79687123525540        7.24971595397817        0.62592065151026
H            1.49008226553260        6.06457283665909        0.46035275984495
