44
 energy: -9.157449696273 gnorm: 0.000775766867 xtb: 6.5.0 (97a52f5)
C            0.98305289768737       -0.32796212451336        0.22892952549364
C            2.46597729083783       -0.02980018471863        0.30779569354592
O            2.78850240512451        0.76039790576923        1.42884963031359
C            4.14247345377624        0.94988678482066        1.50868661037963
O            4.93181760887594        0.53689307546906        0.67868601791019
C            4.62623005988996        1.75436199538171        2.66427795400062
C            4.24130143984798        1.46078585858978        3.95261620281258
C            4.65648339731064        2.30033290972938        5.01306048543116
C            4.15250134843403        1.84398862422164        6.23688484798521
C            4.45257760894504        2.55377885626259        7.38719481180800
C            5.24217598376500        3.68896288418248        7.27852111781433
C            5.74377324367392        4.13902768561370        6.06073233621441
F            6.51054236188787        5.25260453143565        6.02199822699502
C            5.45128603905186        3.43391322065799        4.87823608824295
C            5.89200458455770        3.75322539162255        3.53459026526904
C            6.69244355183814        4.84647293222003        3.27923931033810
C            7.12404776336540        5.15832252730845        1.98447241999192
C            7.94346052333414        6.27999859627675        1.71386768784865
C            8.34526393303111        6.55395880265141        0.44409110413407
C            7.95521606184039        5.72791532898495       -0.62148233650235
C            7.17006474397854        4.64071883303720       -0.40090702961228
C            6.73032501505500        4.32241320304612        0.90740575974638
C            5.92224215200843        3.21218970574994        1.16798504812275
C            5.48472289061903        2.90370116420433        2.44435004931141
N            3.41694197269518        0.67926765619277        5.96119069248342
C            2.72176795637940       -0.13752539997968        6.93673355700181
C            3.44791387376370        0.38535594948110        4.58292915594972
O            2.93257281667706       -0.57991746772090        4.05268071303342
H            0.73157130167571       -0.94514139875672       -0.63509149668159
H            0.40846397547783        0.59601782489071        0.16365430532979
H            0.65157179837389       -0.84872939287812        1.12736188282156
H            2.81917922330029        0.50697749752152       -0.58370881067961
H            3.05815766223701       -0.95293306157965        0.38337424003255
H            4.07672476830816        2.22133457702469        8.33826703601404
H            5.48733234413888        4.25566987820432        8.15911204299548
H            6.99327396336411        5.47634815578277        4.09497534393866
H            8.24482627116384        6.91480466455069        2.52905397030045
H            8.96875346615734        7.41124996660321        0.25024182553685
H            8.28232712667156        5.96116617176819       -1.62146872857390
H            6.87195714969239        4.00881304384178       -1.21953496763475
H            5.64826647862780        2.56535980329958        0.35521283521762
H            3.40728503673511       -0.43863416296010        7.72639509086632
H            2.32771904914622       -1.02763817156670        6.44935136952233
H            1.89719740667814        0.42466535827603        7.37041811492961
