59
 energy: -10.835752618749 gnorm: 0.000952083179 xtb: 6.5.0 (97a52f5)
C            1.12789294700671       -0.22176071337445        0.02092393436770
C            2.60995720403844       -0.15786834702850       -0.28629354094723
O            2.97743609713878       -1.03396395244929       -1.32802668571709
C            4.31832963209706       -0.92615137481606       -1.59567516916285
O            5.08131681570472       -0.21295953678883       -0.96778051872695
C            4.83621810021293       -1.79077811143736       -2.69420207870129
C            4.31404971790994       -1.72594615808277       -3.96913265765729
C            4.79650675237343       -2.60686440935390       -4.96185174253216
C            4.14182788906578       -2.38209859135402       -6.17764974295599
C            4.48747779298836       -3.15349858153369       -7.27266856328912
C            5.46632182336774       -4.12119471941940       -7.12570350233799
C            6.13564721213009       -4.35937552842539       -5.91045528864800
O            7.12310110532878       -5.33191072075334       -5.75871158820153
C            7.41749399073344       -6.07924075614342       -6.91679795923166
C            5.78900256339542       -3.56686843429009       -4.77514418269410
C            6.35549437724997       -3.63652262320985       -3.44970442810466
C            7.36545529147675       -4.55442397096006       -3.12756750826928
C            7.89221587661429       -4.60380153851929       -1.86800682709167
C            7.43625125249781       -3.73911855654256       -0.87953602529094
C            6.45459588403421       -2.83071861863320       -1.15183377367035
C            5.88280485002549       -2.74963645543415       -2.43334931484916
Si           8.33446391613278       -3.99303733399926        0.72917134883996
C            7.15354837744897       -4.55451059572756        2.07451828654265
C            9.29023054021243       -2.45161996672922        1.20894511005603
O            9.40957077220172       -5.23755239027499        0.36461450178753
Si           9.23436295767288       -5.72744148665414       -1.23762349678775
C           10.84139183464196       -5.44009573706998       -2.16209061626929
C            8.68688501640122       -7.52120909302568       -1.28963704130831
N            3.22575681859105       -1.33076100854637       -5.96008406315892
C            2.39247986037938       -0.71440647390949       -6.97367807976193
C            3.30831057871593       -0.87376056630246       -4.63226060806344
O            2.68154892535519        0.05667977953013       -4.15551610613375
H            0.84456934714695        0.45628519266193        0.82769795332522
H            0.83893977323308       -1.23202568137029        0.31146102769289
H            0.54240074262527        0.03874788241216       -0.86099637452446
H            3.21448387092989       -0.42043087568929        0.59265092830161
H            2.91246551227325        0.85352595214255       -0.59116382700468
H            3.99653704227511       -2.99322514326931       -8.21588239648927
H            5.72325173428261       -4.71383707157867       -7.98402376543437
H            8.19873922281339       -6.80060704251987       -6.67377949098674
H            7.78193813102347       -5.41776048664107       -7.70388311567047
H            6.52928730847988       -6.62001914321668       -7.24634974165489
H            7.72972256958045       -5.22606704754817       -3.88034307146349
H            6.12782863934531       -2.15366976864018       -0.38445754140715
H            6.60861457545595       -5.43235359796391        1.74168632286229
H            6.44400321875619       -3.76706293329904        2.30971914318346
H            7.71215499468766       -4.80785724693179        2.97024009860916
H            9.94674961918893       -2.16042338546890        0.39560498712487
H            9.89132275984457       -2.65164480135370        2.08986576596746
H            8.60954378336450       -1.63371934751663        1.42214148766507
H           10.73762172399610       -5.72998715300317       -3.20329525418578
H           11.63555769808540       -6.02488673193921       -1.70848741301221
H           11.10912005006341       -4.38925504974518       -2.11339381762788
H            7.73837042060873       -7.63029692471512       -0.77306776809054
H            9.42682215582452       -8.14500388054799       -0.79778393489485
H            8.56939647151689       -7.85322358566334       -2.31673523201692
H            1.83614305220422       -1.47627045107300       -7.51490093085635
H            3.01053736032153       -0.15762021877645       -7.67419240805061
H            1.68937144893057       -0.03104488748766       -6.50238370339325
