24
 energy: -4.920548145862 gnorm: 0.000401384343 xtb: 6.5.0 (97a52f5)
Br           1.06743245007217        0.19798379754930        0.04201338366861
C            2.95360745348659        0.15771375651853        0.04388915747483
C            3.68693964021326        1.28739057830759        0.04438024563679
C            5.08672622322898        1.25556378266408        0.04572350856679
C            5.78493263061283        0.08883139637357        0.04658991562694
N            5.18584184896562       -1.13876655698727        0.04627163436178
B            3.72133228782246       -1.13703301228016        0.04488716573791
C            2.98062806154640       -2.46274994328330        0.04422729201169
C            3.69390714958734       -3.58846035473018        0.04497227400923
C            5.12703040498879       -3.58665605094734        0.04642538687600
C            5.82071120020152       -4.80657102499531        0.04720662564017
C            7.18845163927662       -4.84155677255699        0.04863044422462
C            7.90930716654737       -3.65649013082871        0.04931806944342
C            7.25614768804259       -2.45188641088927        0.04858210950789
C            5.85831317526146       -2.38072852769553        0.04710711590368
H            3.17293950665211        2.23550492201746        0.04370051716387
H            5.62452174905198        2.18986293798264        0.04604723299903
H            6.85808727560020        0.12965350708125        0.04756633094855
H            1.90863808434547       -2.44146476932535        0.04316411240836
H            3.18846109090830       -4.53917953363504        0.04450894195642
H            5.25898319790827       -5.72496598703350        0.04667435823467
H            7.70617689125311       -5.78679483662734        0.04921486140988
H            8.98677829582114       -3.68550527520437        0.05044236529795
H            7.83550488860543       -1.54728549147475        0.04915695089091
