66
 energy: -11.802647141227 gnorm: 0.000422471692 xtb: 6.5.0 (97a52f5)
C           -2.57328336359333       -0.41168643191211        0.38889512977947
S           -3.19407404025352       -2.02735179542901        0.71475576412058
C           -4.75994653645601       -1.58817066583123        1.36710653225367
C           -5.42593583449582       -2.40213448865493        2.18883145338315
C           -6.73175131017740       -2.13353099730414        2.77841091555919
C           -7.22454086878309       -2.97861941909171        3.77478592655714
C           -8.45347564558051       -2.75693707075869        4.34931745375539
C           -9.25033727544640       -1.68322873323640        3.94948978663531
C          -10.57615351802728       -1.45256809019876        4.56448407647958
C          -10.77739535873378       -1.65714822091518        5.93020040689484
C          -12.01138996181091       -1.45573623088306        6.50151377094969
C          -13.10362317590834       -1.04705683177482        5.73334881367383
C          -14.40205547950818       -0.86372163360385        6.36947626640178
C          -15.55106524665625       -0.62810711788290        5.73314725635348
S          -17.06588166784513       -0.44832002632667        6.59054336058569
C          -18.13996047814744       -0.43473670490061        5.18865394479745
C          -18.32796445418334        0.61710996915188        4.39412865235181
C          -19.26994383418688        0.55223047443076        3.22100056538310
C          -20.29686608397974        1.70291200836401        3.26983012308605
C          -19.59994367711439        3.06804255855873        3.43939011109852
C          -18.67912282190839        3.08873553528704        4.67625146884722
C          -17.65028415772581        1.93955347795607        4.62778020519397
C          -12.90053157866380       -0.83589805443034        4.36767845679560
C          -11.66429732459594       -1.03283938055654        3.79763357190157
C           -8.76100802744550       -0.84063602379281        2.95005498848314
C           -7.52908094420729       -1.05879115286428        2.37831687176046
C           -1.37113320509402       -0.16954176048670       -0.13035885489368
C           -0.87809669738360        1.23770077208945       -0.34191266532538
C            0.49047325325696        1.45208998240208        0.33866826667200
C            1.50093001277315        0.36409140152815       -0.07860040172436
C            0.95734141563496       -1.05349037058327        0.19193751271692
C           -0.40869857401119       -1.26750524792141       -0.49267006947156
H           -3.21468230891475        0.40933057575012        0.64456450609120
H           -5.16470858025799       -0.63660629607794        1.08566540338932
H           -4.95748228801021       -3.33569178044983        2.45149403251510
H           -6.62552724388212       -3.81491682643697        4.09303367080041
H           -8.82065328892095       -3.42708687067515        5.10742695177069
H           -9.94640531539664       -1.96590516537944        6.54073554205008
H          -12.14779649907387       -1.61929291300267        7.55702495421639
H          -14.43438949331972       -0.94666464322513        7.44269172349717
H          -15.58894547273006       -0.55422805381692        4.66476488372683
H          -18.66001354956236       -1.35297166914666        4.99127592843169
H          -19.77599971972808       -0.42103588263424        3.20071307718485
H          -18.68934703191742        0.60555440401673        2.29257831605339
H          -20.98325729487103        1.53949224554507        4.10985170016950
H          -20.92776874847697        1.69816766271866        2.36993846490046
H          -20.34183124581901        3.87709836804346        3.49521225036326
H          -19.00402910955527        3.28170576292750        2.54334567830860
H          -19.28835241710760        2.99022066612136        5.58323081853085
H          -18.17234781658854        4.05968770920458        4.76687673297353
H          -17.06668995327546        1.90140451153432        5.55552279375976
H          -16.92418382638209        2.11716885706164        3.82587344590460
H          -13.72070637509810       -0.51028743069245        3.75283002090733
H          -11.52961423532103       -0.87795734555183        2.74096599685716
H           -9.35826869436156       -0.00206013331865        2.63582414685000
H           -7.17977240061941       -0.39808103665214        1.60481953690092
H           -1.61788472909937        1.95459384114683        0.03554027803926
H           -0.79743068128686        1.43110876494377       -1.41797785471079
H            0.36039927248934        1.42688529915492        1.42768326362620
H            0.88317323062130        2.45341645731296        0.11299225313722
H            2.46316969629876        0.51333815374444        0.43113051449616
H            1.71993827056280        0.46752397675189       -1.14863525649520
H            0.84567451053820       -1.19870143960027        1.27356540594363
H            1.67892286876620       -1.81567097474140       -0.13403503752565
H           -0.83272420793770       -2.24184587079379       -0.22144720727960
H           -0.28441886152704       -1.28956265421452       -1.58171659644798
