46
 energy: -9.659109130630 gnorm: 0.000735815410 xtb: 6.5.0 (97a52f5)
C            0.79755669091809        0.07484494373676       -0.29381654484774
C            2.29555238751832       -0.14778614963311       -0.33299152592287
O            2.71024141995463       -0.71299321971370       -1.55438493180082
C            4.07613163142466       -0.77706849688131       -1.61697517547906
O            4.80567868139136       -0.45439186980815       -0.69773374537094
C            4.65233050378635       -1.31968132696223       -2.87652680866464
C            4.21633250765550       -0.88261531923306       -4.10644647918980
C            4.72514370015944       -1.48174815015452       -5.28217084343004
C            4.15162614199136       -0.89875184160386       -6.42094619052722
C            4.53058946794033       -1.35653680644374       -7.67324616978079
C            5.46251400864152       -2.37639255274300       -7.74655672342880
C            6.02830974053680       -2.94815487297274       -6.61079744492512
N            7.01387961621700       -4.01664561356707       -6.78698403759383
O            6.62063905873842       -5.19235797893094       -6.79196140528024
O            8.20822044718304       -3.70768189729958       -6.91057218969512
C            5.66791055721220       -2.50515072564151       -5.32473895420810
C            6.16592813887936       -2.96824973734923       -4.03967212351642
C            7.11363275137213       -3.96751697255243       -3.94129380050415
C            7.60251697194562       -4.40785683446124       -2.70630082044317
C            8.57635280999528       -5.42961225664455       -2.60488063087805
C            9.03602242225684       -5.82921826262854       -1.38935746171823
C            8.55248962527735       -5.23499374737817       -0.21357058289298
C            7.61682789674917       -4.25103021992691       -0.27088294423134
C            7.11293547467521       -3.80771700886188       -1.51813819602622
C            6.15457609271085       -2.79638331254695       -1.61531509503790
C            5.66098808317945       -2.36106718739651       -2.83329060055042
N            3.27178616342105        0.09442243944297       -5.97033495644790
C            2.52653143051586        1.01804707296499       -6.80273733946904
C            3.28859760165026        0.17138704495199       -4.56314660106869
O            2.67079699596786        0.97672084363119       -3.89448680477976
H            0.47054632819838        0.51812127381904        0.64819988145820
H            0.26731605485237       -0.86816888740856       -0.42829841516879
H            0.49094493410468        0.73493422064755       -1.10575777044645
H            2.62932740391637       -0.82212566845775        0.46801218410995
H            2.84573413460000        0.79619134296241       -0.21095032196479
H            4.10475747896027       -0.92071816763921       -8.55942002026686
H            5.77123373613377       -2.74745244820447       -8.70880161153036
H            7.49475296464072       -4.42673510836618       -4.83343484857748
H            8.94943070971856       -5.88531016312220       -3.50590789508868
H            9.77846857978396       -6.60770530215040       -1.32423534148601
H            8.92961584444418       -5.56381660746214        0.74098050801262
H            7.24874298588882       -3.79617875435300        0.63253579556786
H            5.80587434744337       -2.32344519293998       -0.71586861697564
H            2.01086586588475        0.47717516239693       -7.59326712553875
H            3.20408658526850        1.74508033202562       -7.24526807923534
H            1.79280302629728        1.54239398485783       -6.19341119515908
