55
 energy: -10.244987857279 gnorm: 0.000491864261 xtb: 6.5.0 (97a52f5)
C            1.22826674122023        0.88414549690136       -0.36556617588584
C            2.65895067570864        0.55090440400170        0.00474541559484
O            3.10517093509392        1.27984486667585        1.12642190508690
C            4.38692627107080        0.91848694315596        1.45399067000383
O            5.05189429275713        0.11885167626953        0.81916932041241
C            4.97908303343846        1.61071349163191        2.63504534870585
C            4.40519011379057        1.51998867933444        3.88344509203004
C            4.97176942001878        2.23743541007852        4.95828757026699
C            4.24440486073453        2.02293073620623        6.13851694150378
C            4.65350579036925        2.65614253575806        7.29784819002157
C            5.77289906966466        3.48076126459251        7.24545095860201
C            6.48368690025699        3.68179827531045        6.07303092459915
C            6.09660086581480        3.05512581114830        4.87896542658870
C            6.72580412570756        3.14744117670713        3.57594341130269
C            7.87380341290084        3.92577831847354        3.36327233448981
C            8.44623560825539        3.99226686396888        2.12239948479197
C            7.90090384654221        3.28969566416289        1.05420767549357
C            6.78659665822962        2.52025626157626        1.22463347958252
C            6.16491209991816        2.42435540576024        2.48055654431157
Si           8.86766417965635        3.54216582570185       -0.51440967804506
C            7.81461474931326        4.38092744472198       -1.82080997009826
C            9.59853687592619        1.92168044840351       -1.11358743430659
O           10.10274363270158        4.57928843414301       -0.02810149410317
Si           9.96889923745052        4.93466287118308        1.61359223944588
C           11.48598513623783        4.29735089842302        2.51438987951061
C            9.72595560279584        6.78106947914309        1.83997029506157
N            3.19914247770797        1.13932852227860        5.81473780927812
C            2.19003140242672        0.64695846954345        6.73209188201704
C            3.25277962654209        0.78645257075354        4.44970568511284
O            2.50279310200178        0.01654541227638        3.87937600567529
H            0.88379085580951        0.31584854393780       -1.23129737522806
H            1.12747082615770        1.94498921846787       -0.59603165740767
H            0.55721022738142        0.67100146632870        0.46685187676806
H            3.34870731154247        0.76636348498323       -0.82279402192041
H            2.77180038396292       -0.51548019497842        0.24439646175393
H            4.11015494040624        2.50559323737757        8.21330735590341
H            6.09638344248013        3.97698699794194        8.14555415606404
H            7.34407937262965        4.32633206686473        6.07614385146584
H            8.31471322740702        4.47446029828792        4.17444659053006
H            6.39045564612601        1.96456826301324        0.39486505745962
H            7.40643911921809        5.30532500500093       -1.42472687405976
H            6.99632527809799        3.73393796919976       -2.12165385698129
H            8.42247332749771        4.61074885508343       -2.69016775170069
H           10.18878290834766        1.47200739857313       -0.32129037414254
H           10.24096032696291        2.10062319521531       -1.97020057566394
H            8.80907025408295        1.23328386933843       -1.39983034805230
H           11.42073654228291        4.52179029487461        3.57467661593449
H           12.37634079757826        4.76616454876549        2.10686321711531
H           11.56611213195896        3.22254140588838        2.38525943640342
H            8.83008443899989        7.10026243846749        1.31650202635504
H           10.57866208754531        7.31564956143757        1.43298490297602
H            9.62502934516530        7.02420225110013        2.89343797750659
H            2.66197062665739        0.23301145630700        7.62105264577947
H            1.60408324530033       -0.13179548081012        6.24753511476819
H            1.52632259214753        1.45823019102761        7.02481581131596
