44
 energy: -9.185304391447 gnorm: 0.000762371692 xtb: 6.5.0 (97a52f5)
C            0.98307337303801        0.02205233994199        0.24196093678177
C            2.48337585240735        0.20203162693459        0.34620671344940
O            2.83237278011723        1.33290957227283        1.11177183133002
C            4.19497353405326        1.45389923888457        1.19514195630946
O            4.97740301264614        0.71496496022184        0.62451804576377
C            4.70149051711897        2.60327914253595        1.99721888364501
C            4.33597884162540        2.77608038084440        3.31153966150288
C            4.77331718958219        3.92343324349752        4.01388664687223
C            4.28797006470141        3.91585666280964        5.32862381796028
C            4.61088920238731        4.97275301601836        6.16360760734139
C            5.40421937025768        5.99651074754293        5.66256917717854
C            5.87837645274645        5.98873504314766        4.35860401429148
C            5.57032570145429        4.93720405406815        3.48760948964913
C            5.98368177687101        4.77249068785885        2.10165756438511
C            6.76871658582399        5.71015827400936        1.46025162151656
C            7.16545308288239        5.55101310569023        0.12538876670090
C            7.96463170634621        6.51096202367533       -0.54149732664884
C            8.33398146512770        6.32610143550670       -1.83727157172301
C            7.93110774107668        5.17780896316374       -2.53693251372205
C            7.16408040602834        4.23353606663802       -1.93083866291632
C            6.75615534646223        4.39169235149449       -0.58333107210881
C            5.96216736185078        3.44326050724275        0.06677231036321
C            5.55581918306986        3.60035983447072        1.38038206575408
N            3.53590688412941        2.73572236003082        5.47500348140178
C            2.87196030515639        2.28046637525133        6.68184440025009
C            3.54354275515902        1.98928927103727        4.27870962409252
O            3.01652311890455        0.90605080503147        4.11074497873615
H            0.71343379830355       -0.85261261901871       -0.35235012830329
H            0.52261150803573        0.89750439756986       -0.21642674634650
H            0.54140546946230       -0.09172479007854        1.23222855280108
H            2.94397186237757        0.32167002067434       -0.64426095459051
H            2.96064260203529       -0.66812785159318        0.81816149428836
H            4.24943496999364        4.99200852609048        7.17587916128825
H            5.65907161469320        6.82162509382005        6.30690761238252
H            6.49159756684538        6.80097045679960        4.01262012758999
H            7.08707393670678        6.58933998528976        1.98764241125545
H            8.27551956840922        7.39213858364077       -0.00751321696677
H            8.94076833700663        7.06506320742214       -2.33410065740276
H            8.23382070494426        5.04743293242918       -3.56291942388004
H            6.85641759793837        3.35385296237264       -2.46913983787861
H            5.66962143102312        2.55682979683427       -0.46490735373093
H            3.11908084635630        2.92458975620653        7.52273598429583
H            3.18675820087503        1.26403005322136        6.90929698500638
H            1.79436637396883        2.28849739849708        6.53169354203395
