51
 energy: -9.844898443557 gnorm: 0.000461843484 xtb: 6.5.0 (97a52f5)
C            1.17306473315658        0.56368590624414       -0.14633955335388
C            2.46796165153221       -0.21602796641903       -0.24985813956164
O            2.88891937340422       -0.37702984555899       -1.58743216688012
C            4.04577174311948       -1.10610696929231       -1.64286350997021
O            4.61781111805479       -1.54586492976072       -0.66149520157816
C            4.60827953000295       -1.36202368253178       -2.99205073325238
C            5.78202530762490       -2.11309788091399       -3.07961759952637
C            6.34016445664887       -2.40706117142950       -4.28956846051773
C            7.57838619885334       -3.21770017779529       -4.36033355163442
O            8.52852766359806       -2.96633578988140       -3.63347619402452
N            7.60651931141943       -4.26444737027018       -5.26196309419969
C            8.78131474756017       -5.09498583627733       -5.43263263737984
C            9.04997124236725       -5.39374009023723       -6.87265299705650
C            8.78083321928100       -6.64398117516508       -7.40685074261321
C            8.98867656071752       -6.89294494133080       -8.74762408379778
C            9.46102251210544       -5.89248620011912       -9.57077441631635
C            9.72285648858591       -4.64198212601540       -9.05188203354037
C            9.51562604975263       -4.39446556177133       -7.71086758538291
C            5.70021548691503       -1.88745343692033       -5.44272975259262
C            6.20751512650455       -2.06833716509582       -6.74477376457015
C            5.57770636912744       -1.53754444161164       -7.82609474433497
C            4.39055431688992       -0.78802277191979       -7.68001105685069
N            3.73702121217945       -0.24059715474530       -8.80071215136204
C            2.60599929308878        0.67564467384507       -8.65777310045890
C            4.16757045516258       -0.54617818489297      -10.16428847867570
C            3.89038651553705       -0.60296771215060       -6.40438162610793
C            4.51884498928118       -1.12877981349933       -5.26583474777118
N            3.97318587681711       -0.87893652923428       -4.04230731230175
H            0.84918045798635        0.68894267785232        0.88825194547128
H            0.37576763459847        0.05748271284516       -0.69119223195442
H            1.28496434899099        1.55424957395099       -0.58792229150794
H            2.36744646564242       -1.22069465775135        0.18372359332704
H            3.28333628602643        0.28420747029709        0.29063901899663
H            6.24707224215277       -2.46837103318076       -2.17715363507849
H            6.77646821708969       -4.54233356393524       -5.78803796231865
H            8.65481825060766       -6.01848474019458       -4.85843990137671
H            9.63664420416781       -4.57111462137105       -4.99340443168148
H            8.40148994298762       -7.42073836241220       -6.76543670787288
H            8.77870260962143       -7.86936068316217       -9.15244169378136
H            9.62305835720055       -6.08704496941719      -10.61831715077581
H           10.08788430725206       -3.85754932648848       -9.69426884341259
H            9.71114773656022       -3.41780419755649       -7.30237921636804
H            7.11207728918399       -2.63404098458903       -6.87469648999379
H            5.99190349089462       -1.68113844525064       -8.80778108672312
H            2.84936018343808        1.46121663744920       -7.94520161418873
H            1.72954740774032        0.13324137375682       -8.30874699947071
H            2.36516848201905        1.14796913220739       -9.60772551352953
H            4.28047705613966       -1.62132541650228      -10.28837607542514
H            5.11794917151872       -0.05858743014631      -10.37227008873667
H            3.43497100857864       -0.20026898140959      -10.89044132164803
H            2.98692330031760       -0.04234382024236       -6.26216186633807
