33
 energy: -6.345111154871 gnorm: 0.000921868394 xtb: 6.5.0 (97a52f5)
C            1.20627934242439        0.50730538636145        0.04735119707142
C            2.57803011140251       -0.12354394300666        0.17566543865737
O            2.94998693556689       -0.83011617019401       -0.98446008051720
C            4.16835086769177       -1.42305016538600       -0.80798261927407
O            4.80790783094072       -1.33138730856443        0.22390914282975
C            4.73038779128118       -2.21814977099532       -1.92677910352159
C            5.89607383554896       -2.89281086833742       -1.72185714871329
C            6.47862111270474       -3.65656149399081       -2.73487398119665
C            7.74224658149769       -4.37043489252814       -2.44044070099441
O            8.22378505101346       -4.28408337492366       -1.32674622633477
O            8.28732978469998       -5.08797883053865       -3.45657356626897
N            5.96782970170629       -3.78320048476860       -3.93925880338344
C            4.80634496635774       -3.11837493691017       -4.18359743031659
C            4.23773643626655       -3.22246003458657       -5.46047766374005
C            3.06220999023889       -2.58442292334664       -5.80629230593802
O            2.59757360382932       -2.76693312027834       -7.10928775812168
C            1.38951327076753       -2.11193470786255       -7.41180901027756
C            2.41952268269907       -1.79960457516525       -4.82403258550007
C            2.94615583101810       -1.67894224700079       -3.57784215518949
C            4.14469669024981       -2.32483123459631       -3.21436043361434
H            0.92107272814263        1.05762585691983        0.94543948019807
H            0.44991662931245       -0.25648364932863       -0.13537126309138
H            1.17882896952240        1.19603115355361       -0.79759584538088
H            2.61960289884888       -0.83472186431140        1.01345347758409
H            3.35763104432175        0.63107980412973        0.35439211206046
H            6.37956386458289       -2.83668435556662       -0.76064907485901
H            7.73635306791423       -5.01908406846555       -4.26041063275427
H            4.73241134311063       -3.82070874221918       -6.20219275634214
H            1.13691983527867       -2.33543048897650       -8.45003911965606
H            1.51587425943418       -1.03406211753712       -7.29750815434717
H            0.59585707798140       -2.48447994970637       -6.76193103949618
H            1.50378624716109       -1.29106224019017       -5.06464025069148
H            2.44416961648461       -1.07887364168402       -2.84120113887943
