54
 energy: -9.723183576541 gnorm: 0.000985068447 xtb: 6.5.0 (97a52f5)
C            1.42837200967866       -0.21474931400372       -0.53272868557273
C            2.65400831243539        0.02625698605475        0.32366588030392
O            2.94789791595244       -1.07655117975400        1.15060696077351
C            4.05616029465839       -0.82344632328435        1.91357359430624
O            4.68336293226568        0.21724469115701        1.87047812187693
C            4.46526112107047       -1.91759403138260        2.82447251846729
C            3.73849567454171       -3.10305750958211        2.79300339580917
C            4.05433800643632       -4.14833154533567        3.60841969610492
C            3.14614209557414       -5.33025012007975        3.57842769369151
O            2.60419267996328       -5.72406072318392        4.59531976216218
O            2.94917990026703       -5.88792595295321        2.34322394326921
C            2.03046128246501       -6.95384348655065        2.42474477390160
C            1.73446360596537       -7.55710309853518        1.06716742131759
C            5.18830854486105       -4.00298151339549        4.46218915595064
C            5.71391755664242       -5.04660224306989        5.27492335467742
C            5.18891895513134       -6.43782028101482        5.23259273164068
C            6.76600749337031       -4.77339799088180        6.11478227267419
C            7.34838075866342       -3.52129743073076        6.16654974001605
C            6.92205956668118       -2.49187184555502        5.35703721363809
O            7.47984792729435       -1.21639353259415        5.33284821691018
C            8.46618290193240       -0.84446153254676        6.21954818997178
O            8.89338717702938       -1.59252233129207        7.06988751696034
O            8.93078421820796        0.43586154047094        6.07862627055343
C            9.95871090458182        0.84581732777644        7.02356385347586
C            9.41398604159180        0.78026284763897        8.45659218653312
C           11.20411972339281       -0.03715749665756        6.86928935520117
C           10.32339260138252        2.29983265244626        6.68608118877403
C            5.82942676297920       -2.73450035087382        4.46404427594505
N            5.47307263891995       -1.71494310050419        3.64975273689402
H            1.19879918846973        0.63865014754627       -1.17283754492800
H            0.55779078069294       -0.41330710041128        0.09259770768960
H            1.57187189183749       -1.08734158667597       -1.16976990134455
H            2.52303146953219        0.89813429481868        0.97950393327747
H            3.54451106256502        0.21769528845723       -0.29096718799913
H            2.90101644187522       -3.18560122587914        2.12199845373897
H            1.11939347019677       -6.55980329672494        2.89710276829933
H            2.45211316624248       -7.69780560360600        3.11435554233077
H            1.34043073583050       -6.79901271149722        0.39004397845983
H            1.00719381326928       -8.36858239998367        1.12677293761618
H            2.64518434769134       -7.94973164109336        0.61487750295225
H            5.05788178546100       -6.77210770463517        4.20315562338165
H            4.22429566767839       -6.49982589041900        5.73668741396562
H            5.86800827199252       -7.13781531514927        5.71966864122203
H            7.15013931311834       -5.55875238821780        6.74320637829572
H            8.16401330940110       -3.34150688981589        6.84066582803600
H            9.14398432435639       -0.24234200430297        8.71343678990905
H            8.52112575128725        1.39535992849935        8.55080040593222
H           10.15248114484224        1.13078476931636        9.17568295796802
H           10.96442339902204       -1.07409681273051        7.09584369659654
H           12.00033544675962        0.28418052049740        7.53864937582771
H           11.57422916821150        0.00461827492786        5.84677954429429
H            9.44305034287052        2.93568732775238        6.75866486223245
H           10.69774079329970        2.36795270313819        5.66653588502325
H           11.08553530956096        2.68527620440416        7.36148107099489
