38
 energy: -7.264259774371 gnorm: 0.000664245895 xtb: 6.5.0 (97a52f5)
C            1.30080757255805        0.29316393397485       -0.56458482509506
C            2.57871692068300       -0.27539614392080        0.01764599740920
O            2.98730249822460       -1.44616076970855       -0.65201297118590
C            4.10300003617106       -1.96774788669853       -0.06427721829315
O            4.64679733515472       -1.47600548495062        0.90591078595763
C            4.65802823063989       -3.20576310797727       -0.65872958793776
C            5.73599967194072       -3.81491702110384       -0.01404073565032
C            6.29048700345539       -4.96204365942935       -0.49316252050717
C            7.42038864262951       -5.56846172115194        0.24889246065163
O            7.86916688205813       -4.98597085189011        1.21845537513030
O            7.90231508697524       -6.76720523314991       -0.19177031836000
C            8.95676640503773       -7.20782933966426        0.63095657450170
C            9.51910945054189       -8.53710238671147        0.16993567227011
C            5.72843892798983       -5.50164639635336       -1.68075957431201
C            6.19830888281255       -6.67628699711516       -2.29147066752108
C            5.62672330088639       -7.17407707372779       -3.43138717838493
C            6.16718807660331       -8.42182441580570       -4.04127135025627
O            7.37365938025523       -8.55604918236350       -4.11800297262175
O            5.27382321391148       -9.35801559129352       -4.46567374372402
C            4.56152810341496       -6.47890985633273       -4.02216443341561
C            4.08457678955160       -5.33653386242711       -3.45830258869472
C            4.64183924049412       -4.81411253889211       -2.27387311569617
N            4.11223768748881       -3.67389336245051       -1.76093572318251
H            0.98217189962342        1.20197256486128       -0.05113474537603
H            0.49368379366359       -0.43707893064867       -0.49721492126739
H            1.43477425805959        0.52769223023219       -1.62099509100912
H            2.46014529715769       -0.53465493526074        1.07975656873394
H            3.41032641252644        0.44053023265248       -0.04971548744803
H            6.13399860502304       -3.36783441148475        0.88209236945810
H            8.56176502153036       -7.26673305118872        1.65538085189676
H            9.72184099378269       -6.41809557073863        0.62394681025828
H            8.74142707147466       -9.30141581964142        0.17084856364137
H           10.33593235182439       -8.88187821408125        0.80636022774311
H            9.89327438116855       -8.45976908461905       -0.85143797919497
H            7.03332119367505       -7.20046184298388       -1.86366271842383
H            4.35533405942918       -9.11231440189699       -4.25116944801454
H            4.14100426747983       -6.84562791373063       -4.94306813307867
H            3.26860105410420       -4.80217190232516       -3.91365420900111
