43
 energy: -7.910087198699 gnorm: 0.000382548964 xtb: 6.5.0 (97a52f5)
C            1.53913662588404        0.07954865078573        0.74598367135625
C            2.75659035701606        0.03541198203455       -0.15446357383839
O            3.04723505518437        1.29532599062898       -0.71886357138532
C            4.13277326783071        1.21127077983849       -1.54668831374327
O            4.75215097752221        0.18255069388912       -1.74996522132514
C            4.55285770000325        2.45946464282882       -2.22530011296053
C            5.63189102798400        2.39296267165321       -3.10664071648172
C            6.07037011067811        3.49521890633307       -3.77731488072514
C            7.21519198627229        3.35398947957755       -4.70648323148405
O            7.75886134283966        2.26814623299561       -4.81163236538410
O            7.60528884332804        4.46036077873285       -5.41198003286916
C            8.69171152731450        4.14991756755538       -6.25497451121485
C            9.12513044875399        5.33357360674119       -7.09495457861163
C            5.37981215926240        4.71420001378435       -3.53187120269351
C            5.72083196653882        5.92424518017124       -4.14626010708340
C            5.04210907386275        7.10099138716829       -3.89294904729709
N            5.41761011133416        8.29614270690887       -4.52329265454456
C            6.44825310945013        8.32691127844013       -5.56179219984203
C            4.78883660671597        9.57299271352043       -4.18437089241378
C            3.96409922592909        7.05931434081644       -2.98192702033007
C            3.60810668458656        5.89981675378065       -2.37025350361887
C            4.29612931722389        4.69154752694949       -2.61614554762437
N            3.88855439167048        3.57244467587705       -1.97127456042780
H            1.31131324161533       -0.89571679362409        1.17930843658022
H            0.66379068520535        0.41597844035506        0.19001222874173
H            1.69159250344304        0.78554394115848        1.56245037610933
H            2.61654493779744       -0.66919097861425       -0.98592195013598
H            3.65183702765464       -0.29025704177730        0.39311472864183
H            6.12532433849413        1.44878116377438       -3.26112536044751
H            8.38260901876325        3.30311974595329       -6.88324794073769
H            9.50742512614128        3.79061609366997       -5.61265595658924
H            8.30321706124736        5.68158858481224       -7.72087653716187
H            9.96578833741464        5.08966638826365       -7.74661732000195
H            9.42264380685551        6.16757201964537       -6.45924058416593
H            6.54479497589563        5.93865717175000       -4.83123698627533
H            6.23288686618289        7.58069354913756       -6.32355465760932
H            7.42246371980046        8.12178879149492       -5.12329375406067
H            6.48551098552209        9.29987022675340       -6.04622167976095
H            4.78939576945395        9.71418714961311       -3.10574130980339
H            3.76397822101843        9.59051423435956       -4.54901182740823
H            5.32976178896124       10.40423504903687       -4.63083230240743
H            3.41113270093104        7.95897791485252       -2.78002628152444
H            2.78338697041575        5.87944578837148       -1.67962714743969
