37
 energy: -7.037686544240 gnorm: 0.000533323244 xtb: 6.5.0 (97a52f5)
C            1.30930128161503        0.89704336128230        0.08796023548387
C            2.59062622436164        0.13637629425976       -0.18348823310248
O            3.04128387955408        0.31307756305283       -1.50736761295153
C            4.16157214375000       -0.43920034115876       -1.73959886359318
O            4.68254731805126       -1.15371803991448       -0.90456527580382
C            4.72451326736115       -0.33408674568539       -3.10449298543546
C            4.12722020099776        0.56389402989146       -3.98976513029381
C            4.59245538576760        0.71608517252612       -5.26146806078036
C            3.93986349381305        1.68733279225672       -6.16523716504401
O            4.31353711567324        1.83028334902327       -7.31473176483881
O            2.90802174435596        2.39801740871141       -5.61021155225871
C            2.36549342281001        3.29775175412003       -6.54979395786154
C            1.28508259186083        4.17025730974847       -5.94490229896606
C            5.70618369438233       -0.07942229654430       -5.64067922256288
C            6.27897953323605       -0.02083576245773       -6.91425259912892
C            7.36543204203969       -0.80047674098725       -7.26492486923357
N            7.90716265516676       -0.72077151592008       -8.52839804281876
C            7.90268471234137       -1.67690168888318       -6.29626162256979
C            7.36468609597308       -1.75352717696618       -5.05130537773291
C            6.25340645806140       -0.96524274878456       -4.67627744090431
N            5.76255994947829       -1.08867216495425       -3.42047904157851
H            0.95581370436799        0.75798535311921        1.11100144144087
H            0.52025907915851        0.57083644596792       -0.58995556621304
H            1.45508014615261        1.96463205404617       -0.07799995457326
H            2.45942125372146       -0.94333800041307       -0.02636173117661
H            3.40254951252532        0.46244347147268        0.48124290731570
H            3.28455076556549        1.14726610346722       -3.65950784149059
H            1.98128536183196        2.69875911222977       -7.38700772985938
H            3.19765888949583        3.89979570729681       -6.94073088752442
H            0.47133341464163        3.55780763118292       -5.55601371314327
H            0.86679720948001        4.87048056508870       -6.66990087705916
H            1.68231645880229        4.74557931250603       -5.10832559664240
H            5.86485074628080        0.64968440375213       -7.64290414699226
H            7.51554240496055       -0.15519520656096       -9.26013593163422
H            8.64208784916041       -1.32539542580890       -8.84922679491576
H            8.74904383664593       -2.28525353984866       -6.56176746864198
H            7.77963615656399       -2.42388180011416       -4.31916522691757
