72
 energy: -12.696985769968 gnorm: 0.000518974322 xtb: 6.5.0 (97a52f5)
C            0.77479754767997        0.45232987656067        0.15437845448907
S            0.09318918824929        2.03441062581707       -0.21775179962271
C           -1.60318347849772        1.65111760643510       -0.00367217603478
C           -2.56524814270661        2.36667162311355       -0.59003700928836
C           -3.99663948216922        2.11402234876464       -0.47781849510125
C           -4.88556441523624        2.78788224394248       -1.31796086813443
C           -6.23943421181766        2.55916455958414       -1.24850905787315
C           -6.76877115950360        1.65044702165439       -0.33089320015144
C           -8.22501604945229        1.39804500884022       -0.26428228732886
C           -8.99845875513605        1.35363782572929       -1.42515592408216
C          -10.35162461899375        1.11853618011367       -1.36553878892469
C          -10.99672409113268        0.92136723104508       -0.14279798549056
C          -12.43349278984284        0.67703802536689       -0.11912506709485
C          -13.18931361603406        0.57903996175941        0.97652037980279
S          -14.91226945078204        0.28077340477640        0.87859624128559
C          -15.35539884542320        0.68873372632109        2.53423929705889
C          -16.57682975800688        0.53040397323494        3.04429124089377
C          -17.71119744992084        0.01336985819180        2.21529362276509
C          -18.87861179766012        1.00005162890410        2.07766717456767
C          -19.63341883536518        1.22108798979107        3.39807476698382
C          -19.06930055475543        2.33280369038477        4.29729159809221
C          -17.53772448564010        2.36213816565054        4.46371210404077
C          -16.86534976764361        0.98123760485799        4.44525065899646
C          -10.22228318094599        0.96433578441543        1.01884773867179
C           -8.86772218416911        1.19578686483063        0.95817007102102
C           -5.88199164476778        0.98480450223602        0.51700444921052
C           -4.52696587408816        1.20947102004795        0.44488353642535
C            2.07927911596978        0.17854206233886        0.13648895435653
C            2.56495650309441       -1.19308276118766        0.50169722625657
C            3.59388696498962       -1.21679642579247        1.64088421889823
C            4.93683199484558       -0.57929652977489        1.25080692078246
C            5.02957155062334        0.93565386742795        1.49174134498665
C            3.79487813310991        1.75522329920254        1.07797469270409
C            3.08886324623009        1.23877611087571       -0.18473718631839
H            0.07509261900981       -0.32145138587627        0.40465121439616
H           -1.84238732592671        0.80803404915221        0.61311605628468
H           -2.26364573052807        3.18869310905305       -1.21706607028052
H           -4.49525346031148        3.49121721113028       -2.03384192344285
H           -6.90870763736604        3.09478200305260       -1.89954383702220
H           -8.51846287478512        1.49070580197206       -2.37879420333943
H          -10.93135150117503        1.08512777924548       -2.27236627707014
H          -12.92396283174280        0.57543324253247       -1.07255555522814
H          -12.76080609432969        0.68215084276260        1.95304479014661
H          -14.57909628763878        1.10426583382986        3.14733390241930
H          -18.07099332701750       -0.92504734030722        2.65324855563854
H          -17.33286242258372       -0.25994955166516        1.22295905266755
H          -19.57363618498186        0.62758556737003        1.31177228287988
H          -18.51428302085191        1.96020149643296        1.69390187236228
H          -19.64781651315911        0.27255747483109        3.94990382684211
H          -20.69279736490474        1.43295122307021        3.19318123003254
H          -19.53717857796437        2.24911050263401        5.28831931475095
H          -19.40418159690939        3.30840590071284        3.91873453904336
H          -17.28085150569591        2.89978479661497        5.38746317237810
H          -17.09015475477674        2.96302282198222        3.66089627424957
H          -17.49562329514049        0.24500124493829        4.95620865515083
H          -15.92558390593144        1.00012840788870        5.01186372830492
H          -10.69005969144663        0.80988735414220        1.97487440310476
H           -8.28922284536617        1.23739686438464        1.86497784222011
H           -6.27107360585540        0.27317652369245        1.22472904530259
H           -3.86712464133645        0.68523888215525        1.11323597179008
H            2.99384968690768       -1.66373293601617       -0.39071363162034
H            1.70254509415532       -1.81693581761477        0.76818069302901
H            3.75605167386224       -2.25776688233539        1.95475425670987
H            3.18672915441093       -0.71067623274060        2.52405810368865
H            5.12741871824793       -0.79753572225233        0.19220795275293
H            5.75965012431584       -1.07692253618327        1.78403955146880
H            5.91245413355717        1.32085016517134        0.96265931070563
H            5.24183580434142        1.12245868376111        2.55340685031163
H            4.07976205790824        2.80969238258545        0.95447162050850
H            3.06143904046386        1.76052259405485        1.89508708971981
H            3.82377979018765        0.85354001468202       -0.90032533574649
H            2.58326949525629        2.06053765570934       -0.70689917195094
