42
 energy: -7.922035445406 gnorm: 0.000832941599 xtb: 6.5.0 (97a52f5)
C            1.38228150932345        0.69954749412708       -0.60529549476427
C            2.54115577620828       -0.14617293872884       -0.11619334389667
O            2.90024791184044       -1.13246172442344       -1.05520159885851
C            3.94902126331873       -1.87057195035833       -0.59265328954262
O            4.48274942733963       -1.67680497765140        0.48205558647219
C            4.44418930479339       -2.95840307974472       -1.46185134176523
C            5.51984775476618       -3.72169407099588       -1.00760052419933
C            6.02712847748442       -4.74217352265601       -1.75409833072358
C            7.16655744485670       -5.51611417192816       -1.21727726395966
O            7.61970174696690       -5.21394221100417       -0.12932886589062
O            7.66194168112220       -6.54162663658221       -1.96920655103508
C            8.73104158772487       -7.16133219215446       -1.29402534032522
C            9.32617960919505       -8.30510629642282       -2.09114842191462
C            5.41031334970772       -4.99203301630886       -3.00939145009851
C            5.82571065774972       -6.01180679132223       -3.87544918677217
C            5.20500008010813       -6.23354428694871       -5.08436177236319
N            5.64818119266336       -7.25894614775961       -5.92372354553452
C            5.11899776707470       -7.60020344477709       -7.15229805008626
O            4.18628024581373       -7.04668114509364       -7.67828319362057
C            5.77634035688541       -8.77219555644851       -7.87656295898603
F            6.83683771576315       -9.17082659892114       -7.16159540275748
F            4.88140659138746       -9.76275741171607       -7.97448096542675
F            6.16118873408849       -8.36101855984880       -9.09117183177374
C            4.12488431549251       -5.41043178820001       -5.44777750883382
C            3.69751039729761       -4.41250746860576       -4.63186438653856
C            4.32117239028413       -4.16700650427518       -3.39049208102982
N            3.84800049494159       -3.15838679514396       -2.62106622144727
H            1.09572798924462        1.46528811202060        0.11851435855904
H            0.51201110021900        0.07233703572321       -0.80373096546724
H            1.64240453637182        1.19462930897317       -1.54185880520427
H            2.29839825394505       -0.66994853490240        0.82043551540452
H            3.43992636973207        0.46022348757138        0.07124644107154
H            5.95656084046276       -3.49857758571742       -0.04678710232668
H            8.33870487691584       -7.50079099804817       -0.32356446245109
H            9.47467705663703       -6.37650506976466       -1.08873246733148
H            8.56858874879488       -9.06322387625912       -2.29369582671788
H           10.15495467418177       -8.78451630997236       -1.56621129929414
H            9.69464354727997       -7.94795448061642       -3.05363805270028
H            6.65005927084427       -6.63932457142613       -3.59155186125203
H            6.43682122285670       -7.81230184628355       -5.61337090624342
H            3.64349999474251       -5.59370148138645       -6.39355013039435
H            2.86922373357480       -3.78610139601337       -4.91801109997883
