40
 energy: -7.470246613761 gnorm: 0.000623679202 xtb: 6.5.0 (97a52f5)
C            1.36628958442193        0.42970608657031        0.71579901245737
C            2.60567980657258       -0.01815434571217       -0.03101556882636
O            2.90420702176035        0.82708734987478       -1.12014627500373
C            3.98831781861213        0.35778121528659       -1.80896862950846
O            4.59846891743870       -0.65144077775799       -1.50571214843723
C            4.41773607012805        1.14042810949736       -2.99082869485964
C            5.46949282324360        0.64147507891369       -3.75882465845297
C            5.91631284437266        1.30047881053614       -4.86477912554128
C            7.03267020845188        0.71298745699660       -5.63983962736161
O            7.53155305758922       -0.33073494250270       -5.25619666551131
O            7.45135144091591        1.37656277507495       -6.76113420490967
C            8.51117709761447        0.68024199016187       -7.37680588607288
C            9.00470380338977        1.37280981365508       -8.63022924133614
C            5.26345760702206        2.52028945935854       -5.19438376928509
C            5.61448652748753        3.30297917458984       -6.29957440263996
C            4.96604924879158        4.48621828436041       -6.59736134591423
N            5.35052076329574        5.22481253192060       -7.70784063918896
C            4.78525871176512        6.50422737673510       -8.09966902054544
C            3.91960226182182        4.90966236033123       -5.75102925364581
C            3.55574777203812        4.16982049083485       -4.67182070064463
C            4.20551951402648        2.95647337682117       -4.35375591462733
N            3.78831374280471        2.26892470005872       -3.26463936312994
H            1.13417266180975       -0.22368604983454        1.55837343354249
H            0.50314519460274        0.44388385959947        0.05049242075960
H            1.49402797621740        1.44266204654428        1.09741962020613
H            2.48925407869050       -1.03515087955262       -0.43032037425926
H            3.48872075908776       -0.02992128421404        0.62234491314424
H            5.93553448000028       -0.28536799488533       -3.47107003175383
H            8.14887873367587       -0.33422544720382       -7.59353947423002
H            9.31066379935654        0.58158396367000       -6.62948545138688
H            8.19916998613406        1.46838095218014       -9.35839984729105
H            9.82515694118709        0.83094609564051       -9.10355627003555
H            9.35359256837794        2.37960407276841       -8.40042263878932
H            6.40971377975845        2.97926877511682       -6.94265427392916
H            6.13642339881198        4.91837401294335       -8.27844996298569
H            3.71353011315305        6.40165698373784       -8.26085996214408
H            5.23288217168913        6.87613005296877       -9.02117135715799
H            4.95315806662459        7.24000788147597       -7.31499380531633
H            3.40999208220876        5.83092515460347       -5.96952262199929
H            2.75649656504794        4.49773142883695       -4.03055819338886
