36
 energy: -6.814654128565 gnorm: 0.000989910636 xtb: 6.5.0 (97a52f5)
C            1.30347196928207        0.01659157539899        0.78051941392744
C            2.53604541182690        0.05393380292563       -0.09776649950087
O            2.92938451579282        1.37270679531627       -0.40043259126093
C            4.00540519189577        1.37212155932296       -1.24580978764697
O            4.53247372069957        0.36192450461553       -1.66946968112606
C            4.51181959921632        2.70877374842267       -1.62957644227649
C            3.90843872296252        3.82682622949051       -1.05258906196485
C            4.32124102429199        5.08858906163752       -1.35621020766991
C            3.65380389079663        6.24050040541061       -0.71108955457434
O            3.96622887448959        7.38501510684142       -0.97874785110383
O            2.67918015124072        5.91574910836806        0.19419292480586
C            2.11503835453831        7.07972812671584        0.75253753954214
C            1.09018484725725        6.75823302146044        1.82034037591615
C            5.38991849505956        5.21216326720682       -2.28427692940137
C            5.91162457087553        6.44836164441840       -2.68234125532664
C            6.95436007458507        6.54272588125503       -3.58513728062599
O            7.47456210265986        7.75299378180716       -3.98300165547168
C            7.49705090592181        5.34975968915323       -4.11054308628128
C            7.00969669475925        4.13812841630160       -3.74137060432332
C            5.94503031024278        4.02201689894553       -2.82126623609225
N            5.50582124900644        2.78329013347327       -2.49407743976388
H            0.99657082450138       -1.00335883686739        1.01795833448767
H            0.46874799795643        0.51638133016562        0.28888979723217
H            1.48631911240643        0.54351370204961        1.71726445021665
H            2.36638525192821       -0.46080146705509       -1.05328630875314
H            3.39255027963329       -0.43592944767818        0.38446188940532
H            3.10148312903755        3.68681693272548       -0.35296827735622
H            1.67404612272726        7.65334699080764       -0.07456918250206
H            2.94318562204464        7.68005643718630        1.15489657876890
H            0.28087665178773        6.15743136283464        1.40467656929618
H            0.65546455121319        7.65803950917294        2.25897732271054
H            1.54418440745762        6.17513182051326        2.62197715786878
H            5.48814647033176        7.34644269868974       -2.27504858441792
H            7.01157774222531        8.48913749378904       -3.54328545587780
H            8.30854900920259        5.42880871620340       -4.81221502993950
H            7.42979215014715        3.23420999897512       -4.14692335092179
