39
 energy: -7.256057364677 gnorm: 0.000452301066 xtb: 6.5.0 (97a52f5)
C            1.36349977311702       -0.65205164697325       -0.09189673935052
C            2.65567742790433        0.11622494115184        0.09560790640266
O            3.05772295892623        0.15607094323877        1.44668410111428
C            4.21343550791798        0.87262942048521        1.58136522312977
O            4.79559940821865        1.39820161500776        0.65037714390206
C            4.76596042290523        1.00129597494974        2.94961226522461
C            5.93425710303947        1.74560911666899        3.11575713339670
C            6.50010561510506        1.91309100112699        4.34328638942137
C            7.73812676084976        2.71942875582614        4.45113876625890
O            8.25946223865819        3.13825822444955        3.43303828008877
O            8.23511334012666        2.96155232356296        5.70156793370114
C            9.40224319790470        3.74729153263554        5.62569199004740
C            9.96116704096973        4.07465465257596        6.99508443418345
C            5.84733714926063        1.29114465537693        5.44274687816915
C            6.31433619003106        1.37118396709637        6.75915130324153
C            5.66863097850266        0.75644660545225        7.81537387196903
O            6.23116064225607        0.90693781685430        9.08020128344138
C            5.52805725210259        0.27543944193373       10.12402542086370
C            4.49236098973515        0.02445695251952        7.53688394191160
C            4.01481976967208       -0.07031477076202        6.26930561135079
C            4.66594967631840        0.55119736879565        5.18188397304245
N            4.13268689284958        0.41049640352037        3.94470558517429
H            1.05031446382323       -0.68327716989186       -1.13683053502880
H            0.56063527337861       -0.19762627892935        0.48958794669473
H            1.47404696586643       -1.67818832735734        0.26015141724827
H            2.56003858315267        1.15684678200943       -0.24545426189185
H            3.48031444540621       -0.33420587089262       -0.47483578685512
H            6.39643761424362        2.19612220833221        2.25370846278388
H            9.14354252909911        4.65777888360998        5.06706532919742
H           10.12699351951388        3.19074573013365        5.01519000315495
H            9.22791088549079        4.62298761689774        7.58695803586513
H           10.86872945938560        4.67784118845460        6.93598829453736
H           10.19714326446438        3.16098590087261        7.54105239502964
H            7.20417924698505        1.92894698331195        6.97715584059130
H            6.05474051151802        0.47376461449219       11.05874313687723
H            5.50057018819897       -0.80167652229618        9.95216359845404
H            4.51889064762864        0.68483967865193       10.19072914547825
H            3.96825824042531       -0.46431850200163        8.33776708139189
H            3.11853382504562       -0.63028221089305        6.06610719978897
