37
 energy: -7.122273254477 gnorm: 0.000622074519 xtb: 6.5.0 (97a52f5)
C            1.25810357988989        0.60605828049106       -0.60927162223344
C            2.50554593413383       -0.09029500026880       -0.10436755852189
O            2.88775018408378       -1.15774894753726       -0.94120077943786
C            3.97560947369422       -1.80010507414039       -0.42589691142294
O            4.52316131511020       -1.47310076895930        0.60950464227270
C            4.49545976982546       -2.95932920973218       -1.18605226721884
C            5.57550393272084       -3.66233668397308       -0.64971255388169
C            6.10148560360572       -4.74417254369248       -1.28724299352842
C            7.24307646889637       -5.45328067344790       -0.66531125435389
O            7.74197057006746       -4.99644381039189        0.34593038065881
O            7.67805961322154       -6.60155522667208       -1.26118713323912
C            8.75702337300452       -7.15373760116687       -0.54616614542086
C            9.25967174508794       -8.43383059479265       -1.18256142327316
C            5.50728970105154       -5.11532470433075       -2.52255261800308
C            5.95439553540918       -6.19824070534454       -3.29811860443213
C            5.36178231513529       -6.51711145874289       -4.48419430258479
N            5.86375128067695       -7.64553079108698       -5.26797339923000
O            6.84853521121187       -8.26523240984732       -4.84797022131121
O            5.28715681021579       -7.93967992519381       -6.32192326788945
C            4.28425257145164       -5.76047124607063       -4.94725581559559
C            3.82355819805513       -4.70417104962438       -4.22321185732513
C            4.41647556330469       -4.34469789527916       -2.99534482735607
N            3.91724251479088       -3.27445917163692       -2.32621667712144
H            0.95366156409175        1.42889947074672        0.03995519572974
H            0.42944996210984       -0.09971313002423       -0.67535835803270
H            1.42262079402321        1.00375257151581       -1.61118947480070
H            2.35795041819200       -0.50662806729561        0.90269213070642
H            3.36171703176820        0.59731640094783       -0.04839449435407
H            5.99964182730084       -3.34036056967816        0.28734893109963
H            8.40859598430767       -7.32029730884084        0.48339279217433
H            9.54142585219933       -6.38430093349893       -0.50358697145619
H            8.46399753974818       -9.17849730867242       -1.22216624200022
H           10.10150008232853       -8.86274548642316       -0.63615609030387
H            9.57827610970083       -8.24995616661878       -2.20912109608033
H            6.78145429122360       -6.79535640101230       -2.95960327374802
H            3.82892430511164       -6.03026144346576       -5.88593033226475
H            2.99399297324913       -4.11751441623623       -4.57898550622065
