36
 energy: -6.814603524357 gnorm: 0.000911466533 xtb: 6.5.0 (97a52f5)
C            1.29959155228854       -0.33162979147528       -0.47380655949420
C            2.64616108580728       -0.21443927214613        0.21103063394723
O            3.09282571050074       -1.45109580598068        0.71983965654470
C            4.29775788508119       -1.30198081049794        1.34575549320413
O            4.88482288544144       -0.24024378807972        1.43994596535088
C            4.90092300219685       -2.52007415969265        1.93676180319031
C            6.11055179539608       -2.38555364646781        2.62064054710258
C            6.72816519921974       -3.45837926385033        3.19003314355189
C            8.00934919072720       -3.23733612235693        3.90478238891102
O            8.50451232034648       -2.12493087339297        3.88974515515556
O            8.57421841595674       -4.29763515223807        4.55697615119948
C            9.77296889581825       -3.90495764547301        5.18448388432721
C           10.39329299594029       -5.02794231549663        5.98989585128288
C            6.08917742501507       -4.71708139694690        3.04976947112397
C            6.61174288262154       -5.91684664148448        3.57464111963202
C            5.97063923506892       -7.10318258377925        3.41469548088720
C            4.74840933811444       -7.17086682941365        2.71194878345935
O            4.07106340667704       -8.35850913144359        2.52890031480723
C            4.22370613551068       -6.00328836498628        2.19360488588631
C            4.86326991412640       -4.76471341012827        2.33992379480058
N            4.27512799451403       -3.66775246828456        1.78957957249190
H            0.95731269081859        0.62406412578644       -0.87437385828947
H            0.54623698505427       -0.69669165350939        0.22547930849859
H            1.34921497567871       -1.04735885207720       -1.29551073200725
H            2.61104244471730        0.48924626746505        1.05508159779492
H            3.41998046513221        0.14970171653963       -0.47973821834310
H            6.56385049525166       -1.41164794478122        2.69759478181611
H            9.53733271452591       -3.03758494077251        5.81731044178740
H           10.44932053204247       -3.55130691382343        4.39362780119293
H            9.70438481665923       -5.37100526199989        6.76205212061429
H           11.32107618611704       -4.72164361116554        6.47618223244289
H           10.61269452916217       -5.88279582364032        5.34996974147090
H            7.54006313387492       -5.88164932495673        4.11427815876353
H            6.38939861085512       -8.00460093765160        3.82455330888153
H            4.55713883974311       -9.09852365932616        2.93556061794711
H            3.29456531399780       -6.04940371247114        1.65814516006757
