39
 energy: -7.246291520132 gnorm: 0.000475157624 xtb: 6.5.0 (97a52f5)
C            1.40230690408316        0.62393232561747        0.11123741250460
C            2.64575070008979       -0.20161673469259       -0.14556067644363
O            3.03906527895619       -0.16127294802602       -1.49908740444309
C            4.14043770290532       -0.94406304814762       -1.70114908238496
O            4.68685287451099       -1.58226130358055       -0.82053680623199
C            4.67868612887640       -1.00147253213783       -3.07983490842954
C            5.78238409313528       -1.81783491296542       -3.31624687852535
C            6.33264551399927       -1.92167086356923       -4.55795846676797
C            7.50220405766077       -2.81527514513867       -4.73752191312108
O            8.00009473779459       -3.33376608076677       -3.75400240995747
O            7.96470432356070       -3.02547108332151       -6.00729243325260
C            9.06368906697933       -3.90719460033492       -5.99091292808075
C            9.58371154301455       -4.20181747541076       -7.38274188067845
C            5.73350847187300       -1.15345663022245       -5.59279228874743
C            6.20610085926702       -1.15298171990427       -6.91381897178498
C            5.60806560680554       -0.39661359348723       -7.88120650704951
C            4.51102996935617        0.38995554189854       -7.57881799114127
C            3.99058789718452        0.43475978764382       -6.29358784446669
O            2.89222008538553        1.19603469370552       -5.92417539652023
C            2.30176888810736        1.94923941094275       -6.95951243485603
C            4.61350472870660       -0.34960872489634       -5.26468410690159
N            4.09580157836295       -0.27922340692402       -4.01946088525820
H            1.09774086756269        0.59569576439260        1.15878723765249
H            0.57123039197839        0.26130606310430       -0.49360635619525
H            1.57063856298514        1.66465708113150       -0.16547383896419
H            2.49021815165225       -1.25744250905124        0.11636490008675
H            3.49750746882039        0.15477306228442        0.45019296017928
H            6.20790090184157       -2.37586860572393       -2.49943301780217
H            8.73478811030265       -4.82359767731494       -5.48104152847946
H            9.83660700584140       -3.44797738047335       -5.35892467664568
H            8.80210001044649       -4.64969528899971       -7.99678133575331
H           10.43539917447186       -4.88398305943864       -7.36782652417325
H            9.89576836335675       -3.28233351444584       -7.87831360151531
H            7.05453880355121       -1.76306834402230       -7.16111991175678
H            5.99184523496243       -0.41284116201328       -8.88831321268306
H            4.05895313647024        0.97439761597246       -8.35892524810576
H            1.45040563812919        2.49024156537460       -6.54346132205326
H            1.94728601264940        1.28287198191475       -7.74751733209890
H            3.02243115436291        2.66858345102712       -7.35164238915223
