78
 energy: -13.579100922863 gnorm: 0.000392531327 xtb: 6.5.0 (97a52f5)
C            0.80059457584367       -0.40398194599928       -0.07569132805197
S            0.12583364406403       -2.03144144132021       -0.02851941144855
C           -1.56884352111771       -1.62013741584966       -0.20167970566570
C           -2.53460944795636       -2.40766813343068        0.27659866695155
C           -3.96568026730806       -2.14363984634595        0.18905002980192
C           -4.85917035641961       -2.92709259916629        0.92276772981035
C           -6.21365019966454       -2.69681434127488        0.87068508612574
C           -6.73852414253419       -1.67626895729869        0.07641167567665
C           -8.19556173664726       -1.42435372418028        0.02404668050234
C           -8.98330263329022       -1.52570077511552        1.17171211831416
C          -10.33547626189053       -1.28119240832706        1.12593320055679
C          -10.96475190238712       -0.92958382208501       -0.07023859069828
C          -12.39978829252298       -0.67437744503026       -0.08085032824206
C          -13.13926151117593       -0.43691215400301       -1.16627865105850
S          -14.86064382204989       -0.13551834202610       -1.05521056609208
C          -15.28393865678649       -0.35719309890308       -2.75116081546991
C          -16.50244635155828       -0.15475409401387       -3.25285117812971
C          -17.63934621201640        0.27455280673674       -2.37750460995426
C          -18.65887527858307       -0.83740230077447       -2.07631795569009
C          -18.01628324930751       -2.20360682135076       -1.73939167957488
C          -18.04857036586878       -3.22780703549717       -2.88466080304190
C          -17.14809739830264       -2.92545007233027       -4.09289290884812
C          -17.59493005264330       -1.71471034081665       -4.94646021399951
C          -16.76957537315416       -0.44017537451973       -4.70048021668690
C          -10.17641366904461       -0.83049632265070       -1.21903940761151
C           -8.82303749448996       -1.07095741619519       -1.17160384837920
C           -5.84697295017938       -0.89851718960628       -0.66434859832922
C           -4.49149840242315       -1.12512818238832       -0.60896285605608
C            2.10538950533972       -0.13072085923451       -0.06246356010765
C            2.57040771972476        1.29319338622089       -0.13485989410002
C            3.20220711152039        1.68234661805637       -1.48167212521405
C            2.40957818985784        1.18233523944849       -2.71245524064624
C            3.00869126670031       -0.05185027965105       -3.40471548357241
C            2.94016341979793       -1.37060972802977       -2.61877844700326
C            3.86224122056157       -1.42987801371512       -1.37802717475340
C            3.12617771032915       -1.22666800485683       -0.04223158577007
H            0.09209125726186        0.40095798467909       -0.11227708200725
H           -1.80307156968768       -0.70153975612582       -0.70181647109438
H           -2.23616198182667       -3.30624380500283        0.78982509510315
H           -4.47204953106105       -3.71920639309077        1.54102394498396
H           -6.88652619735791       -3.31728713229215        1.43724715445450
H           -8.51513542054869       -1.78286233666062        2.10625411366672
H          -10.92674732544039       -1.35918043814729        2.02252835055006
H          -12.90256906611306       -0.68530158035727        0.87151262684329
H          -12.69737854002665       -0.42480317754776       -2.14221866864607
H          -14.49635979667275       -0.69248878464574       -3.39800027468737
H          -18.13759390672899        1.14037385640533       -2.83099741935800
H          -17.22443608505353        0.64845312104251       -1.43393693545597
H          -19.34380903952639       -0.96180350983060       -2.92240935264119
H          -19.31148216801781       -0.51033281335121       -1.25408103517939
H          -18.52019771973639       -2.63535038080717       -0.86249109736841
H          -16.98079838822781       -2.05023233847695       -1.41335079084915
H          -19.08302297513470       -3.34208338914381       -3.23104984601757
H          -17.77819391855087       -4.21457405084476       -2.48224035158840
H          -17.09852862035065       -3.82009297606864       -4.73048085216618
H          -16.11684822395918       -2.77341394020657       -3.75288588142703
H          -18.65714536342205       -1.51845856924357       -4.76330001107315
H          -17.55328476380311       -1.96658202547457       -6.01591291382849
H          -17.26006322865618        0.42913501429038       -5.15567891099907
H          -15.80723389687582       -0.52776575094528       -5.21967948723094
H          -10.63166772045854       -0.55526861878370       -2.15374796099557
H           -8.23309103647792       -0.99937914502401       -2.06915980045947
H           -6.23334737266344       -0.10051262603879       -1.27479538483394
H           -3.82799864312552       -0.51457029217253       -1.19543059170295
H            3.27067840448542        1.48565277504558        0.68738460410419
H            1.71298710416019        1.94813950167383        0.06310024957505
H            4.23042700869589        1.30852379309122       -1.53913824382135
H            3.31550818268367        2.77534179635420       -1.52029965031012
H            2.32906630056247        1.99660529939890       -3.44719351552431
H            1.37384051132757        0.97237501130963       -2.42007405134400
H            4.05473427170651        0.15593028069544       -3.66126152778954
H            2.50622576006171       -0.19148722847455       -4.37254411712501
H            3.18811321495530       -2.20106761467908       -3.29561783696428
H            1.90448132758128       -1.56346179973405       -2.31492561155366
H            4.65929634358006       -0.68605478201818       -1.48760624415627
H            4.39893306848722       -2.38905112356402       -1.34791025882697
H            3.84286101823633       -1.03795388196666        0.76666955948799
H            2.62291391131020       -2.15984773770620        0.23735847474016
