49
 energy: -9.452958461386 gnorm: 0.000450842320 xtb: 6.5.0 (97a52f5)
C            1.27828547000443       -0.57177054291170        0.14563186755695
C            2.61199837393506        0.14541993289556        0.11077655360753
O            3.04012426034582        0.53393631491953        1.39752787668420
C            4.22138897031335        1.21884032351596        1.32563632506042
O            4.80761605851722        1.45205603388936        0.28429357635388
C            4.79454559059833        1.69628556987805        2.60621109156450
C            5.97423316624098        2.43603077728710        2.56114139930047
C            6.55410249948140        2.91397532976259        3.69757009283208
C            7.80927943441674        3.69489850797413        3.57311768708672
O            8.32672976578027        3.80266504730284        2.47504718653007
O            8.32715651682883        4.26628551689671        4.70364272606428
C            9.51278814769105        4.96701182655154        4.40420081914889
C           10.10451348074906        5.64260532735961        5.62412514211807
C            5.90160733665138        2.61779267300828        4.92551686033180
C            6.38545301220762        3.04488603907542        6.17141579178174
C            5.73122199396351        2.73853756433842        7.33079870593998
C            4.56805024250848        1.99023466426381        7.30387822936763
C            4.03614575424716        1.53222526417950        6.10748200055227
O            2.88117196194535        0.77181697463531        6.00523361967338
C            2.27012693279231        0.40959262051234        7.24133425024740
C            1.09054060041511       -0.48877630173304        7.03454538627802
C           -0.17956105438580        0.03942127913748        6.87673966921630
C           -1.25683647620683       -0.78745799016146        6.63552963487162
C           -1.07307361021408       -2.15054441047325        6.53916026863323
C            0.19033586854790       -2.68474404242740        6.67782778961661
C            1.26682714393302       -1.85704457673579        6.91908421835259
C            4.70957163216973        1.85270771871504        4.88010336448889
N            4.16551005476595        1.40156550372024        3.72938405834973
H            0.94749694042545       -0.87672731797186       -0.84863951612162
H            0.50930388877330        0.07028214303679        0.57584840987109
H            1.33888725099945       -1.46254631594263        0.77129270873630
H            2.56425068600189        1.05378803768172       -0.50577275961113
H            3.40024298148493       -0.48995755186175       -0.31612381031576
H            6.43485403425064        2.63250260017197        1.60815850018013
H            9.26968111837461        5.69582552608167        3.61861066514977
H           10.21349984948141        4.24415113741533        3.96400911396383
H            9.39719330014393        6.35501511766017        6.04917343321593
H           11.02607281200329        6.17867455280063        5.39117937520056
H           10.32756288782033        4.90890030823040        6.39895438313762
H            7.28703766405280        3.62682961795753        6.20606169512242
H            6.12304696787035        3.08206982004535        8.27424422053462
H            4.07109547852502        1.76792941000229        8.23007679437958
H            1.96243570862466        1.32739459454246        7.75353891973479
H            3.01877166235241       -0.09530253968200        7.86101432644475
H           -0.31696052266011        1.10538858629786        6.93575635759820
H           -2.24218886999890       -0.36713038808430        6.51801371368413
H           -1.91445004232306       -2.79673670017379        6.34953710054176
H            0.33777064559543       -3.74902457839841        6.59398549610770
H            2.25722242996202       -2.26848900518473        7.01174468083813
