35
 energy: -6.666427741851 gnorm: 0.000843035694 xtb: 6.5.0 (97a52f5)
C            1.32629875824125       -0.25161247717274       -0.46277133352464
C            2.67760215460442       -0.16058194432228        0.21645736716542
O            3.13102658605541       -1.41636321164724        0.67025242326880
C            4.33775302678238       -1.28938489363337        1.29826846357246
O            4.91955715639270       -0.22975374729102        1.44040479344267
C            4.94963282445593       -2.53160256247162        1.82929101289719
C            6.15280059854338       -2.42045305563833        2.52889350085052
C            6.77462854630404       -3.51352715414778        3.05020525124600
C            8.04937367938866       -3.31802656793802        3.78472204162589
O            8.55296310667362       -2.20903250733811        3.79995764589194
O            8.59732901913819       -4.39734971494065        4.42082457611776
C            9.79243330657111       -4.02926958029734        5.07035045164730
C           10.41081322365627       -5.18260872226571        5.83307959110938
C            6.14698331949803       -4.77102553348023        2.84202311042778
C            6.67755563505820       -5.98827685412713        3.30958755303256
C            6.04260371158877       -7.17146033936639        3.08264628335147
C            4.84082028761994       -7.19509832826727        2.37644595312949
C            4.29853031870703       -6.03608808608285        1.90886005557258
C            4.92852454781758       -4.79364865921866        2.12077617606629
N            4.33650889051283       -3.67660659149100        1.61915849647687
H            0.97945897944731        0.72001807593268       -0.81860404486492
H            0.57809883212513       -0.64744325056921        0.22492628997103
H            1.37105260045455       -0.93041869098474       -1.31532684117427
H            2.64707085368682        0.50816621445627        1.08857313284335
H            3.44536059860970        0.23403096161697       -0.46425049041307
H            6.59716918754178       -1.44790727531554        2.65598678449804
H            9.55260414495905       -3.18850634221611        5.73626705724540
H           10.47328799431052       -3.64294623068606        4.29905997766540
H            9.71833028191143       -5.55919718061367        6.58610714436952
H           11.33458623186356       -4.89395383303905        6.33733019030446
H           10.63738942413032       -6.00991491386386        5.16035391831465
H            7.60140994011018       -5.97283339449896        3.85712715185268
H            6.46627248675104       -8.09197178595546        3.44947549618582
H            4.34121386260185       -8.13390138659471        2.20152597186951
H            3.37177588388568       -6.04895043653081        1.36237484796371
