46
 energy: -9.237278122673 gnorm: 0.000597764730 xtb: 6.5.0 (97a52f5)
C            1.95130137006813       -0.52092606805198       -0.11501144268877
C            3.40945530472690       -0.35683828767985       -0.49249460193054
O            3.57754584078911        0.46797051387398       -1.62477716788390
C            4.90518203903743        0.58704710928472       -1.94322723691727
O            5.80652092752116        0.04789484523741       -1.32765092283558
C            5.21176530299442        1.43742054292106       -3.12149147091146
C            6.52218523941965        1.62397255543350       -3.53557757498036
C            6.80277697558031        2.41274371280429       -4.62483200303585
C            5.78116199415325        3.04038358897794       -5.33865887053350
C            6.09932080887772        3.85010540777674       -6.49465636811595
C            5.32087321119542        4.65563136082306       -7.24403565293046
C            5.98266524893923        5.34342929138386       -8.38456246318715
C            5.36442070218649        6.22291102933249       -9.28054156111645
C            6.10672417606607        6.79221790800441      -10.29506395687246
C            7.45436048171369        6.50426181593703      -10.43678400850605
C            8.07999896193615        5.63602768849989       -9.56012036522743
C            7.34075032793923        5.07142532278944       -8.55335395626192
P            7.73649980720871        3.92823993284328       -7.23158708350409
O            8.79677325925038        4.48884687808523       -6.24946697369915
C            8.21005984475588        2.33030297578551       -7.89317804095928
C            7.26225207152762        1.50575476155928       -8.45099936734332
C            7.64255166548332        0.27775681103007       -8.96053959045450
C            8.96770468182812       -0.10827404336203       -8.90833234991819
C            9.91326792756642        0.72778889945799       -8.34771846282365
C            9.53009826128218        1.95505023353913       -7.83701060853453
C            4.46554510098800        2.85033859487878       -4.91340412728276
C            4.18967731987217        2.06082510293018       -3.82237375719994
H            1.82157055152776       -1.15821530365563        0.76125709035473
H            1.38887002361942       -0.96030884854056       -0.93906856419825
H            1.49949477331188        0.44733193754486        0.10147524790754
H            3.87632780198963       -1.32464610508431       -0.72100276436792
H            3.98825191298884        0.09147155485026        0.32652315472857
H            7.31338638794036        1.14233268798845       -2.98722002015738
H            7.82112231656783        2.56742741056055       -4.93602088360711
H            4.27243786489181        4.81042665376804       -7.03390911985456
H            4.31793777586739        6.44529565697489       -9.16865360057757
H            5.63215089693756        7.46981218006599      -10.98548692515775
H            8.01938429842254        6.95898181906023      -11.23362750762956
H            9.12664822500273        5.40219452790186       -9.65413578945210
H            6.23196294570131        1.82257345298010       -8.48383946993298
H            6.90568356090208       -0.37584709286937       -9.39748850061637
H            9.26472916970216       -1.06453163829580       -9.30652561668280
H           10.94698767858118        0.42633314219457       -8.30764524760890
H           10.25092384184444        2.62197374310641       -7.39027866647189
H            3.66224793380946        3.32098899166134       -5.45193840312537
H            3.17437318748400        1.91353674569674       -3.49644442787925
