59
 energy: -11.838926757888 gnorm: 0.000791645955 xtb: 6.5.0 (97a52f5)
C            1.96580688348723       -0.62577720968456       -1.51529650515674
C            2.85155556351212       -0.21072751965210       -0.35782765337839
O            3.35350307632416       -1.31838098183129        0.36021463522752
C            4.15548104010685       -0.90090192927117        1.39169665832892
O            4.39348281994441        0.26686511028705        1.64268054744601
C            4.75148982019489       -1.97725197643657        2.22773193387509
C            5.59978218474754       -1.66153241005564        3.27731339538788
C            6.16208285424374       -2.65519414928750        4.04801026535738
C            5.89209081941098       -3.98865475956860        3.78242326648054
C            6.50483287686062       -5.08320721307973        4.61303652500744
C            5.53157353840098       -5.68857330399142        5.63215116631786
C            5.43153276600175       -7.14039694160396        5.23897340000380
C            4.66353667801430       -8.18934733781495        5.87037450145467
C            4.80524662678569       -9.45352819539533        5.31657773941769
C            4.15449384671719      -10.57018386867995        5.82069971311746
C            3.33472828799824      -10.45325474689739        6.90342301865354
C            3.13522446385659       -9.20115513327226        7.52123540881553
C            2.28733852172422       -9.09120228837132        8.64613501225032
C            2.08454800739897       -7.88996135843404        9.25338773321455
C            2.71689487395615       -6.74833327661935        8.76239368658517
C            3.54327220822264       -6.82342555711090        7.67813236257011
C            3.79177633800471       -8.04477647706918        7.01545063243061
N            6.18980136518575       -7.39574865285564        4.20048157666664
N            6.83969381399249       -6.28504089951667        3.80971638971489
C            7.78873282513975       -6.27568085216907        2.75221289043334
C            8.06896070588745       -7.46116737375024        2.08555694782876
C            8.98278101565032       -7.49184653526251        1.05659777835024
C            9.64045502582591       -6.33571136982264        0.65777972861433
C           10.64727233624275       -6.37160765939668       -0.43863026008216
C            9.36700198375812       -5.15187943316807        1.33023643138792
C            8.45377716198594       -5.11882100212656        2.35963838877228
C            5.03433777209671       -4.30230607666885        2.74214546920234
C            4.47134971603370       -3.31021204479806        1.97050283283935
H            1.57894298758223        0.23357277488123       -2.06577928145796
H            1.11544989069419       -1.20888274128471       -1.16012399267037
H            2.51637875433872       -1.25433232960434       -2.21595234598672
H            2.30670253334785        0.42262471656550        0.35551263527774
H            3.71480875507860        0.37349292332570       -0.70504267523999
H            5.81291395431670       -0.62578788400327        3.47829836247975
H            6.81959253349197       -2.40242078526225        4.86199295908653
H            7.42609082039482       -4.72801990411850        5.09439388090451
H            4.55684646862088       -5.19780660558626        5.55004086514847
H            5.90264140160946       -5.58186410878047        6.65736172494979
H            5.45553892725645       -9.56246532970508        4.46643911141106
H            4.30236059458202      -11.53171751594144        5.35688535564715
H            2.83098651067835      -11.31845496253080        7.29908567489141
H            1.80182689159633       -9.97605006740475        9.02082185951026
H            1.43710092317751       -7.81854956523301       10.11198197692175
H            2.54946120236280       -5.79992732979073        9.24649972859665
H            4.00437071964941       -5.92132276329114        7.33152411291873
H            7.55796391367743       -8.35628933710287        2.39253457558002
H            9.19614977736308       -8.41845882659496        0.55190711466001
H           10.43155739370415       -7.17354585344176       -1.14540271144167
H           11.64851948902669       -6.53526228512083       -0.03888310396720
H           10.65549614442642       -5.43388085008030       -0.99524630221475
H            9.87934467384704       -4.25206286231939        1.03565383261133
H            8.24031492860203       -4.19185837013570        2.86016810851929
H            4.82232698163742       -5.33758578480999        2.54018457486623
H            3.80951501121147       -3.55619092922683        1.15817834186251
