70
 energy: -14.308411989558 gnorm: 0.000673467479 xtb: 6.5.0 (97a52f5)
C            0.92760449344289       -0.10241253889422       -0.68841312711040
S            0.13505289413411       -1.54376905934381       -1.26735851381964
C           -1.53652810460866       -1.07652774408350       -1.03269775041332
C           -2.51938503212342       -1.97833972322460       -0.99637759643048
C           -3.93372384010912       -1.67805477250726       -0.81192679886163
C           -4.83091730157977       -2.71133050916405       -0.53449715108914
C           -6.16990820548994       -2.45781878720693       -0.35580291059084
C           -6.67672477533904       -1.16043352576474       -0.45462740168969
C           -8.10176649385762       -0.92634469204167       -0.26008656739836
C           -8.73311207146870        0.22965770440215       -0.47370872039468
S          -10.45221951062763        0.40256448115268       -0.19376125484706
C          -10.73127309469187        1.91885862767281       -1.00656637216306
C          -11.96535879454215        2.38245166356916       -1.30140922991784
C          -13.17352600347139        1.61596238570877       -0.91830377799468
C          -14.23279382193843        1.46423000196840       -1.81233563761576
C          -15.34939511102997        0.73530751958777       -1.46648212636173
C          -15.43072065079280        0.14213982042732       -0.22239615118152
C          -14.39349585985694        0.28400419974489        0.67737439861313
C          -13.27849142213021        1.01478815898168        0.33515485134083
C          -12.12480379358880        3.65916746107090       -2.03374024071538
C          -13.19550006267701        4.50754507242834       -1.75330405131853
C          -13.35428145538459        5.69466390044848       -2.43406799859899
C          -12.44793822685166        6.06000476203281       -3.40927513434399
C          -11.38248206522244        5.23263638972974       -3.70308978016516
C          -11.22104189063990        4.04447204103135       -3.02421740158413
C           -5.78001477954032       -0.12701585645909       -0.73492909132626
C           -4.43953525108033       -0.37989704982017       -0.90851278439735
C            2.24936786461493       -0.04732168799507       -0.41509371637966
C            2.84926951063356        1.19591233493347        0.11968354522654
C            4.14934771798510        1.56146306552257       -0.22831082006927
C            4.71816672281526        2.71282161771561        0.27044370097332
C            4.00141298248356        3.52392117691722        1.12727810130140
C            2.71360757617635        3.17854415904905        1.48549285847427
C            2.14215843136530        2.02725027766300        0.98874112779622
C            3.11363099664648       -1.23218658792415       -0.62407248734605
C            4.05742188810454       -1.60297947617827        0.33310093294691
C            4.84726773479762       -2.71681508204934        0.15069376168846
C            4.71046978500857       -3.48340405713351       -0.98943360053624
C            3.78343906329488       -3.13033880209383       -1.94940578527893
C            2.99542102065752       -2.01614324346542       -1.77076795679034
H            0.31702105062196        0.76605242448570       -0.54204676138696
H           -1.74387134649985       -0.03254247473382       -0.90950354437121
H           -2.24950855013183       -3.01603528006871       -1.09704911480162
H           -4.45897909302487       -3.71857087240618       -0.45518436256469
H           -6.84591422863733       -3.26739705094442       -0.13948594879353
H           -8.69162331048306       -1.76182283088275        0.07723994371629
H           -8.20222761657875        1.08942690434781       -0.82955659915593
H           -9.86893526075083        2.49237883441167       -1.28220180377701
H          -14.16334431633693        1.92124453426187       -2.78451287767060
H          -16.15942679927453        0.62643918183564       -2.16915998501425
H          -16.30419512452807       -0.42922362391351        0.04675678718299
H          -14.45795802463266       -0.17431657773502        1.65086589796664
H          -12.47940480704398        1.14087370241135        1.04474573560544
H          -13.89996013759490        4.22266833048452       -0.99088833233973
H          -14.18797288290348        6.33842382113965       -2.20539727783414
H          -12.57332232793855        6.98867911010574       -3.94187238720493
H          -10.67736994660206        5.51482615833858       -4.46796864642841
H          -10.40033571320481        3.39308616785928       -3.26990646490370
H           -6.14064046159138        0.88339107882403       -0.80912738294648
H           -3.77254449870217        0.43308627145749       -1.13421707627860
H            4.70642202628741        0.92974132522448       -0.89857091911657
H            5.72440176250055        2.98005269523005       -0.00865017472093
H            4.44725896632735        4.42433217241544        1.51752128903094
H            2.15507045513999        3.80863960183714        2.15845227137488
H            1.14562453715102        1.75127528809267        1.28699589229544
H            4.15603653718247       -1.00828916726263        1.22496015208595
H            5.57189904142919       -2.99096748792574        0.90003853497514
H            5.32880791866429       -4.35491295796041       -1.13082057923067
H            3.67865254816907       -3.72591337783510       -2.84171345182316
H            2.28529853943752       -1.73236952746826       -2.52788415551242
