58
 energy: -11.094049495896 gnorm: 0.000908909952 xtb: 6.5.0 (97a52f5)
C            2.20057363209220        0.69721800698217       -0.10316635133006
C            3.33132089817421        0.01778356102250        0.64177699499839
O            3.39125490864714       -1.36582987340481        0.37393960709545
C            4.39555285867607       -1.95204783060056        1.09931102917693
O            5.12841572127453       -1.34552735493208        1.85963239993382
C            4.55939771341614       -3.41244141884507        0.91742093394976
C            5.51087204547004       -4.11052784825087        1.64996603915531
C            5.66206556446846       -5.46579365871738        1.49093059355686
C            4.86397846502184       -6.16750837447908        0.58764135265592
N            5.02018325904339       -7.55173211771880        0.43744737893554
C            4.33788027110239       -8.39427851782225       -0.42354733214113
O            3.48411492845865       -8.03196515863930       -1.20265427781421
C            4.72784317114802       -9.84712256659918       -0.36759241091997
O            5.46577017698731      -10.15064243102223        0.81193004518739
C            5.81444405932168      -11.50418909821096        0.96514056578747
C            5.60376702902004      -12.46058204144900       -0.00682646180932
C            5.99643028352581      -13.78457034529844        0.23540500165291
C            5.90191959221374      -14.96520066470583       -0.54635955723163
C            6.44991602152721      -15.98886128889905        0.20402511925321
N            6.87737609318059      -15.49417502898440        1.41524645798079
C            6.60877251297497      -14.13464585818369        1.45512362465689
C            6.83845794377060      -13.16579393784093        2.45624326102094
C            7.47301773772919      -13.56550208234611        3.73897346189616
C            6.42381983501253      -11.87004694720686        2.21095409931003
C            6.61303819839768      -10.80542108575580        3.22894358046898
C            6.52913601750152      -17.37265205128994       -0.26144277362829
O            6.93155190296343      -18.26129680809443        0.45359814855531
C            6.08488183035941      -17.63233994347294       -1.67976174952280
C            4.98691894993003      -16.65853394733121       -2.17161175035344
C            5.31988667013995      -15.17068698334545       -1.90785386183964
C            3.91596359223706       -5.46033832315237       -0.14732869001646
C            3.76372674137276       -4.10645195816805        0.01524013430525
H            2.15466946855008        1.76746420469428        0.10543768696801
H            1.24173406146948        0.25749028711332        0.17216598396303
H            2.31698225678935        0.56662721219891       -1.17916300022058
H            3.22373785204427        0.13459652698124        1.72898534757558
H            4.30667403150602        0.44404441099861        0.36964503531391
H            6.12616220945221       -3.56755610736014        2.34694337069870
H            6.40050212291331       -6.00007409551498        2.06244774810176
H            5.70055010914208       -8.01170512320506        1.03774361626965
H            5.34393194103477      -10.09436933393543       -1.23679439583506
H            3.82772091683325      -10.46819821423494       -0.38112855095445
H            5.14850574967944      -12.21473127807858       -0.94602245228584
H            7.29682846405449      -16.06020992048171        2.15094463857870
H            8.07268714272030      -14.46686137619098        3.61473933902120
H            6.71753876771392      -13.76680338128748        4.49906861077660
H            8.13686352613386      -12.78625836567218        4.11332151327326
H            6.30360804083295      -11.14421211784244        4.21796033604868
H            6.01550287164611       -9.92801230988257        2.98087442059067
H            7.65694512776658      -10.49491488200153        3.27867774620114
H            5.74015694356787      -18.67026462376918       -1.74744919976236
H            6.96024000840746      -17.56223723160698       -2.33318671235265
H            4.04383240744275      -16.90719349471489       -1.67070300963276
H            4.79724400412442      -16.81697309190179       -3.24150766179586
H            4.42350707469712      -14.54821742260947       -2.01380353838004
H            6.03142594261389      -14.80614873299990       -2.65700569539498
H            3.30325378386975       -6.00165403593147       -0.84517388124293
H            3.02671654983625       -3.56344352600773       -0.55130190845265
