40
 energy: -8.391801503499 gnorm: 0.000837539902 xtb: 6.5.0 (97a52f5)
C            1.30624375287456       -0.87081444527437        0.70967851912087
C            2.24332922623396        0.21241790668365        0.21657440425800
O            2.91602093330351        0.85081015391819        1.27683419286796
C            3.71662186722867        1.85128614933232        0.79946903754713
O            3.81110305952117        2.14305482964763       -0.37816950398547
C            4.49441107734941        2.60384906558853        1.80623987795112
C            4.35411641236658        2.34009083984282        3.16416325424786
C            5.08742226948100        3.03683010720895        4.08874671470832
C            5.98288541187466        4.03826474482996        3.69383084189618
O            6.73422842243645        4.72987746757603        4.61039210736176
C            6.10806471391224        4.33271451372048        2.31029276592183
C            7.02065661075814        5.36753079433443        1.86504274114683
N            8.11519101730224        5.80953490668278        2.59094358012368
C            8.84807576487125        6.75056720124029        1.88319501962691
O            9.85577715399226        7.32672197063087        2.25179345141519
N            8.17263788975006        6.89940011757550        0.66146602780803
C            7.03928580341486        6.07548935197954        0.65986002564401
C            6.31575135534468        6.32724581885400       -0.57120376945396
C            5.09326394779427        5.88271568624437       -1.07375336871184
C            4.66873477015926        6.34673738618745       -2.29662561929375
C            5.43200606901902        7.25552794513998       -3.02457673125880
C            6.62833826714088        7.72448725326942       -2.53210783662947
C            7.06712333135583        7.26383614140582       -1.30114867885339
C            8.25954335907942        7.64318397855586       -0.53233924908705
O            9.11780820884573        8.43458107329655       -0.86514844504829
C            5.37706044465211        3.58532755264555        1.39922739515304
H            0.79228631959758       -1.37548074925188       -0.11023800840435
H            0.55210486046920       -0.44839841370112        1.37473656714557
H            1.85487363873194       -1.62044389095489        1.28112838455192
H            1.70519891182625        0.99172123998083       -0.34175856832682
H            3.01318227129277       -0.19253542997882       -0.45555937453892
H            3.66567211442784        1.57136603473553        3.47282435781909
H            4.97895272229016        2.81422209781856        5.13503935131962
H            6.53134452609314        4.43759478320142        5.51684380441207
H            8.29922158421039        5.53562278721092        3.55413497924301
H            4.47893322806742        5.20906550637091       -0.50547124271270
H            3.72746442588090        6.00601331324959       -2.69587189758170
H            5.07635625935898        7.60410587452366       -3.98055495270191
H            7.21973400419790        8.44178235891742       -3.07435219475739
H            5.52923399343649        3.73141597676933        0.34646203995712
