44
 energy: -8.826804583665 gnorm: 0.000937986572 xtb: 6.5.0 (97a52f5)
C            0.66302726903114       -1.04272167565281       -1.24813320911063
C            2.15602313122912       -1.27596768053439       -1.13893780693832
O            2.51070535834292       -1.90459402010387        0.07282691013124
C            3.87085830185755       -2.03979406136677        0.16229045349033
O            4.65038649219448       -1.66591934271967       -0.69483111029130
C            4.38160495690637       -2.68160681137189        1.39669149441091
C            3.48108720197498       -3.17141755831467        2.36407028332329
C            3.91924089097772       -3.76336355769981        3.51745488518797
C            5.29794285232363       -3.87697760417395        3.72703935859176
C            6.21322784563578       -3.39030325818038        2.76110718160455
C            5.74089592362216       -2.79215692802287        1.59333115772027
N            7.51069824723800       -3.61229004800819        3.20979208720614
C            7.43119031225477       -4.23122375692936        4.46243639613850
C            8.21727588048329       -4.73558878724324        5.54664411144107
C            9.59567976212604       -4.80973664348622        5.77379190870252
C           10.03441825784584       -5.34596220065911        6.95366806843263
C            9.13483733606106       -5.81683579414168        7.93084990182970
C            9.64943623921403       -6.38325513351501        9.19991222774651
O            8.87414537748074       -6.82707267193441       10.02704882010438
O           11.00973380624794       -6.36110330556339        9.35907306914763
C           11.37238530290370       -6.92113998822767       10.60158459114286
C           12.86834924414431       -6.87333458550004       10.83590507838007
C            7.77547951846432       -5.75015074448776        7.71420423278608
C            7.30195011974982       -5.20891931342048        6.51912543535540
N            6.00416285056537       -5.01312000300547        6.05825367293306
C            6.08426970640879       -4.40770184783317        4.79889683877837
H            0.38927952075830       -0.55511225459365       -2.18524014551470
H            0.31226009556317       -0.41761641769815       -0.42664957538967
H            0.12163571923546       -1.98703670282622       -1.18698962943642
H            2.71534289038385       -0.33141545691692       -1.19084474237035
H            2.52567463124927       -1.91210974620051       -1.95511186567003
H            2.42673766717203       -3.06690535734920        2.17482350965777
H            3.23120861908541       -4.13456487246679        4.25606915513662
H            6.42497407191912       -2.41822392337392        0.85509711237527
H            8.36868465908568       -3.33562249873306        2.73834037645462
H           10.28319014598913       -4.44549639184865        5.03126472397900
H           11.08857741263644       -5.41528614379464        7.15922909170129
H           10.99465555302465       -7.95260252198107       10.61493205795688
H           10.82545446969002       -6.36972328781709       11.37864515349067
H           13.39677689670979       -7.42081939582354       10.05523979478414
H           13.14823391315806       -7.30194383709994       11.79959355580219
H           13.22778713055146       -5.84472021549134       10.80790428886398
H            7.09234452911048       -6.10929347349883        8.46050281381721
H            5.14569988949778       -5.21524018045006        6.56476828620131
