42
 energy: -8.080286818913 gnorm: 0.000626789483 xtb: 6.5.0 (97a52f5)
C            1.52515060283678       -0.51794331986815       -0.88584432685172
C            2.77570638439396       -0.12175742203233       -0.12797569270197
O            3.05018878665057       -0.99932070851042        0.94089303894000
C            4.16649389356389       -0.59328452551505        1.62119119858180
O            4.81962389753486        0.39161665475525        1.33181199720744
C            4.56561356190198       -1.43557300907801        2.77564317943735
C            3.84966958855575       -2.58751744697594        3.08543472675339
C            4.20215011095760       -3.37444750728085        4.15774034152342
C            5.29221778990615       -3.00822404764563        4.94429112158880
C            6.01099659386847       -1.85209898561520        4.63253721539376
C            5.65420386113240       -1.07332227906900        3.56056813762364
Se           7.43996751366703       -1.58277628151238        5.86497115274156
C            6.85674597601597       -3.17923177440172        6.73518471280249
C            7.34204083110472       -3.88798018061333        7.91966190948012
C            8.41879497898807       -3.51340633403263        8.72065314932289
C            8.74486166292430       -4.28085449492418        9.81554516598796
C            8.01670711468380       -5.42333244585511       10.13214880834046
C            8.36954795520242       -6.23448029870773       11.32353117143089
O            7.75834714685463       -7.25887167168885       11.56345660864809
O            9.39046232959208       -5.75220269704930       12.09721426912443
C            9.61437843080302       -6.59977928504458       13.20162872067452
C           10.72570094892497       -6.09113581828017       14.09686712129656
C            6.94594740931538       -5.79759559761995        9.32910213352828
C            6.61409801698175       -5.03699382515986        8.23654806555731
Se           5.20087390413469       -5.31894677386348        6.98954079928185
C            5.78865611034344       -3.72501860291064        6.11884890042208
H            1.31564990211336        0.15844434727119       -1.71610002492645
H            0.65954329228466       -0.51787457048373       -0.22257601351444
H            1.62242551216986       -1.52736591400505       -1.28683189382736
H            2.68643884363645        0.88793880778562        0.29644634949988
H            3.65955689617116       -0.11791271484611       -0.78078092708883
H            3.00768254314350       -2.85130823992661        2.46883730644807
H            3.64881020941310       -4.26463547781460        4.39950360104515
H            6.21011937073943       -0.18330839859992        3.32615170202212
H            8.97931562805134       -2.62866157393897        8.47558587686095
H            9.57077966964689       -4.00547367581158       10.44858344099692
H            9.84139262534559       -7.59875505259968       12.80417053360421
H            8.66343388242699       -6.68052576273268       13.74654704247033
H           11.66140628737880       -6.01787861467970       13.54253386230952
H           10.89162238648631       -6.74100905989437       14.95757152092227
H           10.49226586757396       -5.09267994349808       14.46680553496337
H            6.37987168257896       -6.67955547772413        9.56963846208110
