50
 energy: -9.703479914954 gnorm: 0.000780788299 xtb: 6.5.0 (97a52f5)
C            0.83093639661634       -0.54603259287842       -1.25356035446836
C            2.31136003619101       -0.52707674710431       -0.93196916018905
O            2.72324510406818       -1.68794497589021       -0.24454127406192
C            4.05975262783308       -1.62219843965642        0.05198704286443
O            4.77807066709716       -0.68392624464112       -0.24192238000883
C            4.62272404480871       -2.78587678954956        0.77797305110349
C            3.80061784352505       -3.88459957945065        1.09670675667055
C            4.28543248116286       -4.97015539563777        1.77414860933911
C            5.63316788665698       -4.97609668252348        2.15151148950494
C            6.46881457881756       -3.87840504940717        1.83724995231978
C            5.95032638634378       -2.78302243632333        1.14742743417145
N            7.75094338316885       -4.12628667540016        2.34172391905123
C            8.89800858194340       -3.23122173909909        2.28991144632509
C            7.71955966877427       -5.37447066622532        2.99340424785165
C            8.50967344923231       -6.28079690338072        3.76955457598301
C            9.83583406337410       -6.24759028536683        4.21564314961639
C           10.29570414632691       -7.28684711163245        4.97766898736054
C            9.46868209205193       -8.37543625668245        5.31771601111428
C            9.99999495713169       -9.47892675101837        6.15345999835261
O            9.29204130863129      -10.43237163387788        6.42240165788274
O           11.29505184260275       -9.33904925305593        6.57935657087959
C           11.67917935679197      -10.44517386261156        7.36576607244969
C           13.09540140121528      -10.31355519626725        7.88745271005125
C            8.16187324610047       -8.41576582067877        4.88198623873907
C            7.66920506515030       -7.36858098123478        4.10394182335237
N            6.40251667318374       -7.14825204763305        3.54970030260955
C            5.21996620006919       -7.98078229755924        3.71752884036964
C            6.43830022326235       -5.91140976206018        2.87635305397443
H            0.51334332595328        0.35245405632602       -1.78523928921157
H            0.24083908537148       -0.62429227239997       -0.34022069017445
H            0.58332815501996       -1.40954027553283       -1.87119921025419
H            2.57463507943070        0.33474360333460       -0.30339574362318
H            2.92033676806872       -0.45520364603176       -1.84357054760321
H            2.76788031390799       -3.84995707913950        0.79588717218068
H            3.65290786536483       -5.80318672742477        2.02310371900921
H            6.57073797023159       -1.93966372117842        0.91025568175971
H            8.82999145140975       -2.58165091975062        1.42027299679844
H            9.81723349465323       -3.80811670657964        2.21884437994439
H            8.93064009962431       -2.61956358839417        3.18895394298253
H           10.46717325470044       -5.41453441603518        3.96376301858104
H           11.30990493968650       -7.28731436278716        5.33778698955457
H           11.56064689812139      -11.34349460427402        6.74452476735493
H           10.95488326851659      -10.52778878812822        8.18774031387362
H           13.80265645491831      -10.22849888452522        7.06224205823839
H           13.39006754812862      -11.16786983665676        8.49923762389647
H           13.19876952326895       -9.41281036503692        8.49286404313089
H            7.53372177965337       -9.24436864044023        5.14890763279385
H            5.50810513554066       -9.01716447349655        3.87783192053966
H            4.59890362901330       -7.92885434379447        2.82620462758496
H            4.64339024719229       -7.63592183122857        4.57317381947630
