42
 energy: -8.133220096048 gnorm: 0.000445062836 xtb: 6.5.0 (97a52f5)
C            0.49545415077632        1.09448842849635        0.74576104419708
C            1.99767407739578        1.12521434638714        0.93900769335615
O            2.64621997158274        1.88499726870252       -0.05616992808932
C            4.00382373609243        1.84054184626533        0.11463443882017
O            4.55817873086146        1.23616134659976        1.01351821947205
C            4.80868302056715        2.58034567143404       -0.88806073249231
C            4.17335175090449        3.34628663548447       -1.87674390492290
C            4.89452128634075        4.01593068703083       -2.82710327512021
C            6.29521143612780        3.92821068481199       -2.80936377899119
C            6.93155434878158        3.16686729933456       -1.82142837337752
C            6.18634699342724        2.50007507345832       -0.86234572462365
S            8.66952561137193        3.21314167841100       -2.03621741816325
C            8.52732253388759        4.21935963919882       -3.46511747938049
C            9.50654754742109        4.76091435229157       -4.41265302388304
C           10.88561960710708        4.57069558163786       -4.37142600340946
C           11.67252220158525        5.11468975034112       -5.36066837494008
C           11.11092190880184        5.85137281372406       -6.39848025484531
C           11.96754573342108        6.40632757811372       -7.47547392619932
O           11.47715657132469        7.10854862017752       -8.33929064377339
O           13.29331039329548        6.06739052271044       -7.41965597951087
C           14.00934711011335        6.62958605146197       -8.49949073439495
C           14.25974347414537        8.11326977650460       -8.32950293134225
C            9.73542609614547        6.04708300831351       -6.43289168757845
C            8.94403269559519        5.50617333888840       -5.45104806020103
Se           7.04531004520156        5.60584372242311       -5.28721451531076
C            7.22549648310744        4.51959369663580       -3.72913029150401
H           -0.00694327693709        0.50520323749035        1.51457292563497
H            0.24306467203592        0.66893103016679       -0.22568533106177
H            0.08512468981009        2.10412341111086        0.77051990294725
H            2.42762826229359        0.11437230167026        0.90796204885070
H            2.27173827913463        1.56009750391017        1.91003447113993
H            3.09789170810437        3.39159821967900       -1.87598509756154
H            4.40913518843305        4.59936104385810       -3.58919059770652
H            6.67537014401932        1.91177743875295       -0.10710808341576
H           11.31724315447680        3.99381230965067       -3.57290050884617
H           12.73914939246354        4.97002662235175       -5.35066007314986
H           13.44027562807488        6.41818231298702       -9.41553662237958
H           14.95356780200301        6.07315386801790       -8.57556179313762
H           13.31425126726166        8.65267826824990       -8.26591599736341
H           14.83232876941874        8.53178018485825       -9.15883269496871
H           14.80693070258153        8.30752793412313       -7.40689006911051
H            9.29589610143985        6.61361489428416       -7.23411683367304
