49
 energy: -9.230219531757 gnorm: 0.000877052948 xtb: 6.5.0 (97a52f5)
C            1.39091197286426       -0.66589809950014        0.65187083604609
C            2.61239578965685        0.09144361022915        0.17229851556583
O            3.09976156709498        0.98962979512330        1.14528542476860
C            4.16730448856813        1.69714977129702        0.65600352934860
O            4.62207066867296        1.55894164942404       -0.46516734979822
C            4.77143501436143        2.68237722748868        1.58511825481111
C            4.29878917078729        2.79835070519778        2.89912280958126
C            4.84116596230067        3.70143726178610        3.77364556827259
C            5.89104758387213        4.53171030980038        3.34884577117914
N            6.52222716280778        5.48342722056743        4.11997731253780
C            7.45423593553680        6.10577800643808        3.44889726433646
N            8.23337015241852        7.10125236040105        3.95987387689576
N            9.06847264098550        7.68132101520424        3.23986968167211
C            9.86595309880579        8.68664541514854        3.74415817499581
C           10.74462483827698        9.38194591749144        2.91445265983926
C           11.53227244353071       10.38675373254759        3.41361670875053
C           11.48115869642449       10.74554369241615        4.76717167649788
N           12.28401634902450       11.77928946782493        5.27806766029771
C           13.26855959967187       12.50214907671686        4.45196475684245
C           12.63602184567937       13.63000107391854        3.66441279980600
C           12.21011292133007       12.21793191696779        6.68444513661179
C           13.04680286047863       11.34869211631781        7.59965385829071
C           10.59705637829259       10.03823511988127        5.59220141837490
C            9.80903598741199        9.03491728084840        5.09123695696752
S            7.63933607316801        5.55286435008694        1.78024312755135
C            6.35855411325807        4.41273145757439        2.03189347160458
C            5.80468446689142        3.49464479549168        1.15826708631955
H            1.01535810399715       -1.36122438022073       -0.10078037957475
H            0.58619805209875        0.02483309551396        0.90494884901424
H            1.62088197466683       -1.23525085356916        1.55273946488798
H            2.39216303797815        0.67629354202839       -0.73137368922855
H            3.43472032939119       -0.59120926035920       -0.08220667820890
H            3.49221183289956        2.15717067962230        3.21048335442210
H            4.47714121257661        3.78968526878198        4.78156745663373
H           10.78991094686020        9.11560806518280        1.87307550406803
H           12.19407171234092       10.91252238065701        2.75002956461565
H           13.76981155745734       11.78387079259246        3.79580360607354
H           14.05617739755071       12.88361033443174        5.11002611727972
H           11.85061547858043       13.25798349683395        3.00611598865442
H           13.36355876800302       14.16031828698421        3.04773883217242
H           12.17233349626262       14.35765656712927        4.33186927039630
H           11.15994276583684       12.23344916166823        6.99204342095962
H           12.53717851564607       13.26187410127739        6.73649969911565
H           12.73060946726518       10.30631633939171        7.55040024241945
H           12.98262916384373       11.66742235273915        8.64185279372275
H           14.09749856549614       11.37562184359228        7.30797726667737
H           10.53731452703607       10.27973734979009        6.63748472593312
H            9.13112431027381        8.49736237337178        5.72990213821594
H            6.17278100175588        3.41229221587267        0.15173546377804
