25
 energy: -4.801562837498 gnorm: 0.000806601829 xtb: 6.5.0 (97a52f5)
C            1.05715764726410        0.41163336948329       -0.19458097192734
C            2.44151749472492       -0.18308923287503       -0.03922176237144
O            2.84210049540978       -0.90254225624748       -1.18376182862168
C            4.09459498955178       -1.42912799392632       -1.00599453477005
O            4.75294369456336       -1.28991383775509        0.00910765532634
C            4.63473736392054       -2.20498001501419       -2.14239198745464
C            5.90346781935273       -2.79187826460314       -2.05764998681547
C            6.42358408089267       -3.51500617692556       -3.09777723463019
C            5.67247121234101       -3.67366263840587       -4.27411018390861
N            6.06924649985948       -4.37619904495407       -5.38648962456610
C            5.16236251688710       -4.35054840088100       -6.33189450393493
N            5.30411987606918       -4.96467192806962       -7.54112060910211
S            3.70956569266385       -3.43491729488123       -5.90705631449309
C            4.40188218635588       -3.08104686205436       -4.35353418135652
C            3.88733873722253       -2.35533516189373       -3.29964692517789
H            0.74797161047071        0.97228709991894        0.68909939649507
H            0.32147157046395       -0.37318435558192       -0.37371676518994
H            1.02360184484694        1.08508480664571       -1.05151269463726
H            2.49022957419738       -0.87526622734182        0.81316193238944
H            3.19781037572159        0.59515908247924        0.13552179184239
H            6.46681660616213       -2.65931138140495       -1.14988447329138
H            7.39886768689247       -3.96320260526802       -3.03374863628023
H            6.12743470452004       -5.48054866223148       -7.78419912002030
H            4.60803473334431       -4.93674538771588       -8.26287725378296
H            2.91197098630143       -1.90888663049702       -3.37087118372071
