23
 energy: -4.271195861064 gnorm: 0.000726809280 xtb: 6.5.0 (97a52f5)
C            1.09275793830800       -0.18250777129064       -0.50092366670794
C            2.49475827700523       -0.07045708675352        0.06271470757277
O            2.96144275632427       -1.29506339754251        0.58531042435496
C            4.21316179851042       -1.14104740572218        1.12141546127410
O            4.82485570515790       -0.08863994043064        1.13814594784752
C            4.82564854101591       -2.35991178935227        1.70862075244209
C            4.15708385332240       -3.57627079690293        1.68264243912743
C            4.73627658902215       -4.70157097617732        2.23139717259245
C            5.98299148937514       -4.62772205177586        2.81026999073860
C            6.67835748643030       -3.41623949731822        2.85055088686133
N            7.93566201717503       -3.33043903450827        3.43345157138193
C            6.07684536992117       -2.28998787082226        2.29027547339291
H            0.73511097463295        0.76527208238102       -0.90652526477945
H            0.39337870602034       -0.50433449764598        0.27062102725480
H            1.05721415007983       -0.92584940498107       -1.29739961445434
H            2.54315705617386        0.67001771225629        0.87290717571221
H            3.21239742002582        0.25000334857341       -0.70481841605477
H            3.18136170342072       -3.62561601061666        1.23093171144809
H            4.20998957755017       -5.64162796629328        2.20814665418491
H            6.43452651977586       -5.50340288930381        3.24143435933439
H            8.46579292589849       -4.15396345672494        3.65382607143848
H            8.52465026691554       -2.52956793084344        3.29269499011918
H            6.59176887793929       -1.34773336820449        2.30572014491847
