85
 energy: -16.229688614503 gnorm: 0.000365997235 xtb: 6.5.0 (97a52f5)
C            8.77390840968456        7.30597019281566        6.06032987912437
C            9.98934371243388        7.99220287331882        6.64925779117655
O           10.16353210875778        9.28918697536027        6.12676035890733
C           11.19061955421990        9.93816537490736        6.75892935613076
O           11.89419743267125        9.42974285521632        7.61218590213643
C           11.43164452823945       11.34754889373303        6.34442108584672
C           12.73193112181422       11.82090786022847        6.29307879289617
C           13.00069682644846       13.10990851422717        5.89212309572402
C           11.96523681625958       13.95116297282444        5.53549229584459
C           10.66662030261180       13.50548002162066        5.58958567217890
C           10.36547801363841       12.20417626421145        5.99987139822954
C            8.94893296930261       11.76567491971366        6.08640891651457
C            8.34437615622334       11.51920372882122        7.32225397102773
C            9.04819592613832       11.68213569491710        8.55034442473171
C            8.46294055814572       11.43468552034681        9.73838723603050
C            7.09274285732286       10.99527562794792        9.81530521956400
O            6.55329965971218       10.75957039446243       10.90476684756402
C            6.39055112904654       10.84438121915570        8.59122463646983
C            6.97691330423299       11.09362633465682        7.36770491020479
O            6.22179104662763       10.92593902337380        6.22591535249829
C            6.82631404146617       11.16542039710874        5.01297740362717
C            6.07970489637036       10.99707080814035        3.84546855421496
C            6.62110858479869       11.19342727526663        2.58738337743585
O            5.78135806448914       11.04025141392644        1.48654482486533
C            6.33161247135755       10.97422427731604        0.22851044994499
O            7.50196733612286       10.85953557673324       -0.04143966642296
C            5.32488838106874       11.03398463683585       -0.90190771893749
C            5.10239813847513        9.66434806113850       -1.51532589461226
S            3.80824313419491        9.67916471387887       -2.73056564166551
C            3.87841251410944        7.96362189858406       -3.18780926007346
C            2.83021316111143        7.62150258871618       -4.19268673510997
C            1.56766409518933        7.21475947316420       -3.78801495851587
C            0.58523312995309        6.93797330042955       -4.71587728574131
C            0.83677834578360        7.06009890620570       -6.07348819218005
C           -0.22901744724480        6.78536539215493       -7.07634627230512
C            2.09255093921899        7.48564602941674       -6.47675994429804
C            3.07584887515145        7.76349417546619       -5.55006082783861
N            5.76113910506026       12.01159729444509       -1.88568116131776
C            5.38851563904608       13.34395505790642       -1.77160348893357
O            4.47599329405170       13.66927674455844       -1.03118590348883
O            6.12937402045076       14.21951724740762       -2.52512302513695
C            5.80324452524891       15.62358232513056       -2.33608164904302
C            4.35698673094880       15.89139992268887       -2.77060842253988
C            6.01711168697019       16.02075430325508       -0.86923987211097
C            6.75956642732979       16.43447823770942       -3.22398506727528
C            7.97618499429748       11.56517948522214        2.50399688138010
C            8.72680105751735       11.75266222165275        3.62245937599279
C            8.17902171983071       11.57364941292347        4.90637610071219
H            8.62952091408166        6.30308188720792        6.46520665351896
H            8.86721144544297        7.22464687475692        4.97723179453621
H            7.87287951140153        7.88611278578081        6.26128597476348
H           10.91172096634953        7.43142742519359        6.44557759803832
H            9.90613287658521        8.08831392744550        7.74063682227553
H           13.53342922185704       11.15820851305836        6.57170086272799
H           14.01840455358827       13.46204295836149        5.85453550242664
H           12.17566351476917       14.95980385799740        5.21995831609988
H            9.85737765956560       14.16479877083743        5.32693796175338
H           10.07405078837938       12.00361698923762        8.51572078861029
H            9.00518662781851       11.55519278607809       10.65867272230759
H            5.36746559250599       10.52400720967550        8.62132999606728
H            5.04982341144695       10.70684221858929        3.92780629378587
H            4.37262977506216       11.40161295066280       -0.49100272668425
H            6.02576895689040        9.32248140643181       -1.98438900185868
H            4.84730574956610        8.93981130296233       -0.73920131494165
H            3.75386708045212        7.35376161070834       -2.29085326898339
H            4.87118289962097        7.74590131305287       -3.58652046464953
H            1.35794330877262        7.12394912349448       -2.73613971189684
H           -0.39196558421593        6.62730415784627       -4.38851557071468
H           -0.98081168073048        6.10425706629022       -6.67687047325871
H            0.18715572101569        6.32804374177015       -7.97437688383228
H           -0.73106743292507        7.70807262022996       -7.36838173163965
H            2.29377712358361        7.60311195180605       -7.52765192056449
H            4.04427812832980        8.10273292807273       -5.87513748447464
H            6.64984583389088       11.78003542864607       -2.31914594477618
H            3.66424601366400       15.31587474898048       -2.15988492680811
H            4.21248146400801       15.59631215596746       -3.80811711136995
H            4.10544691851969       16.94625145918930       -2.67294388328679
H            5.34638693883019       15.45999922738442       -0.22122500172864
H            5.83167292897548       17.08279437211299       -0.71732994567622
H            7.03804743543740       15.80123550864761       -0.56267737987565
H            6.64234425804699       16.14627932708121       -4.26686852656780
H            7.79249851437785       16.24160571877991       -2.94039320201040
H            6.57101289063365       17.50337163063779       -3.13695217406801
H            8.41042103224470       11.69818129910421        1.53090196832024
H            9.76188434623547       12.03215630703467        3.53388227121487
