75
 energy: -12.902965676536 gnorm: 0.000716225354 xtb: 6.5.0 (97a52f5)
C            0.22079213645345       -2.04462543680906       -3.28009437620025
C            1.46077492109344       -2.59418271051392       -2.60565294511826
O            2.63707781134880       -2.01751479513682       -3.12342778209985
C            3.73202067172897       -2.40680198974118       -2.40243775781398
O            3.67971894771957       -3.18990627398551       -1.47288962100422
C            5.04490802788661       -1.82686887932068       -2.79436799417212
C            6.19716577297229       -2.52744552215296       -2.48097065716058
C            7.43967761142391       -2.03384257632305       -2.80516413375470
C            7.55137599643361       -0.81789721105240       -3.44808426574733
C            6.42312850247292       -0.10055571583123       -3.76186830159658
C            5.14925610117554       -0.58228452387880       -3.45097410139293
C            3.95239010349758        0.24582543373878       -3.75221279063627
C            3.30491554576025        0.91487772875368       -2.68115953911333
C            3.77411261973018        0.83871589071423       -1.35389862245400
C            3.13192097219313        1.47213934488867       -0.33790735717425
C            1.96549591759515        2.23910010330232       -0.56895094925399
N            1.29206750871732        2.88249470323152        0.47657737462624
C            1.70464242219219        2.67863497971257        1.88062885358011
C            1.19248645107110        1.36731502150242        2.43944496183386
C            0.02839478473884        3.61424697504350        0.20770319852366
C           -0.57456779315408        4.37752051658639        1.37252606532277
C            1.50342924003819        2.31986550018217       -1.87626574231507
C            2.14273542365052        1.67830628770602       -2.93555919194597
O            1.62360006386981        1.80134680973877       -4.20352507089671
C            2.25504945624577        1.15130495336266       -5.21504255945753
C            3.41257251957088        0.36697405606734       -5.03920166815080
C            3.99267793687069       -0.32165405513263       -6.20971166344720
O            4.98146506350530       -1.02086639334422       -6.07400226121755
O            3.41980814796206       -0.17184511442050       -7.45799011504635
C            2.29301430892981        0.61729307607615       -7.60960284993933
C            1.73553041602493        0.75953773944150       -8.87437225461334
C            0.60538207339669        1.53840833881059       -9.10436663534493
N            0.06781134547566        1.67386813122233      -10.39030975061153
C           -1.01594319042769        2.63030930941035      -10.69285277998124
C           -0.54098458634138        4.06914237388966      -10.67672917803876
C            0.59525482377452        0.91869896145438      -11.54460649869544
C            1.79127124813170        1.59298798044544      -12.18356588247252
C            0.02212828731148        2.18468147351290       -7.99700983583255
C            0.55393548723480        2.05609251701958       -6.74689289089636
C            1.69319448512394        1.28009623822957       -6.52445672808144
H           -0.69515450983322       -2.47890391933618       -2.87626753440571
H            0.24840846004337       -2.24398528821173       -4.35139311145072
H            0.16725311469058       -0.96250386066361       -3.15750184829726
H            1.54792351887132       -3.68176427056373       -2.73581715667604
H            1.45048319472626       -2.39852339069067       -1.52413371844935
H            6.10103764085685       -3.47158276658426       -1.97187507551659
H            8.32506834571721       -2.59556658193060       -2.55612725855605
H            8.52438969121390       -0.43113296095653       -3.70307503572993
H            6.50765777799716        0.84750498781699       -4.26479746252792
H            4.65608972953628        0.25791180224681       -1.14982422857464
H            3.51956975608759        1.37834250521041        0.65953682148729
H            1.35995596446747        3.52022975004766        2.48599442595239
H            2.79541690710346        2.73830828220513        1.93410283163335
H            0.10291881714687        1.33258192445558        2.41574742016823
H            1.50894474800251        1.20951212155835        3.47215075009245
H            1.54873797385209        0.52254495776934        1.84933587768762
H           -0.69142765839424        2.88264786957579       -0.17352808567617
H            0.22874609865357        4.31094523819217       -0.61241699156252
H           -0.82466948649270        3.71300331122067        2.20004298478147
H           -1.49447943105618        4.89053221418619        1.08480721910947
H            0.11292038976694        5.13732036602533        1.74641698529633
H            0.61942192600053        2.88093340646897       -2.10720274067487
H            2.21857610198748        0.24958563147579       -9.68438705226930
H           -1.82776510992557        2.46696787732380       -9.97752741690768
H           -1.44173672879610        2.38177048177894      -11.67004108280068
H           -0.10799058517002        4.33315060910160       -9.71173481388302
H           -1.35258577428069        4.77010585424517      -10.88132960919503
H            0.23370321533257        4.23413054981967      -11.42580423045242
H           -0.20986939919732        0.78774890977571      -12.27453606757559
H            0.83833437401607       -0.09430087281997      -11.20963594647065
H            1.52038419326470        2.56756477191565      -12.58986263163185
H            2.20815828974922        0.99959048195319      -12.99948591464772
H            2.58472658837647        1.76119225524106      -11.45500691882368
H           -0.86082050545431        2.78117659000537       -8.13426111133986
H            0.10430478784050        2.55315791570063       -5.90431797431408
