73
 energy: -12.707340345680 gnorm: 0.000696927766 xtb: 6.5.0 (97a52f5)
C            1.87474564828015       -3.11971829883969        2.97877364223719
C            3.17836902622552       -2.37946107969743        2.76056250198390
O            3.88900175829998       -2.89053310204937        1.65719944712491
C            4.99320671359849       -2.13036833527155        1.38832643317167
O            5.33324865254670       -1.17661571207490        2.06227926137715
C            5.80165380542218       -2.51092631130981        0.19846961367585
C            7.14306258555019       -2.17021006200639        0.16998834674979
C            7.93139188390685       -2.48124842699423       -0.91364581088297
C            7.38488057701691       -3.13730750398067       -1.99793532670170
C            6.05384226369150       -3.47580986246681       -1.99712391238057
C            5.23321190062447       -3.17906778419507       -0.90662233524486
C            3.78189602059566       -3.49571105320461       -0.95896221340313
C            2.86677849272470       -2.43193781911490       -1.17086914660780
C            3.29310441832297       -1.10540644049423       -1.38619847712780
C            2.40253493402995       -0.09402835606204       -1.55802321852700
C            1.00757410704664       -0.32927990694015       -1.53069333837542
N            0.08530237462498        0.71277570831324       -1.68374228307363
C            0.53548874614111        2.11868984007982       -1.74633123277977
C            0.85911845309279        2.67423280403593       -0.37473519524417
C           -1.36968476829057        0.43630779054818       -1.57735970537851
C           -2.30401807078671        1.60315972480066       -1.83884928087889
C            0.58439839257039       -1.63651176772516       -1.32807311872439
C            1.47746837195618       -2.69074257583826       -1.14594831595527
O            0.98274714525515       -3.95695084001924       -0.93655091075131
C            1.87388283454312       -4.96223341298303       -0.73890357253431
C            3.27161763607015       -4.78258766763887       -0.74408554377983
C            4.14178819362534       -5.94788309481557       -0.48927642297835
O            5.35224607232614       -5.80959108053519       -0.47660055909216
O            3.58697776179139       -7.19404069915365       -0.27082632461614
C            2.21169587924679       -7.34710750142750       -0.27539120171406
C            1.67042747910780       -8.60459214832932       -0.04469756406402
C            0.29808254143703       -8.82827497950358       -0.03011692025495
C           -0.57079029167206       -7.73149180905519       -0.25779884152977
C           -0.03797133056688       -6.48884399950314       -0.48928016332663
C            1.34050316001398       -6.26867800194548       -0.50356320588304
C           -2.05747439710509       -7.92622982847927       -0.24663447135276
C           -2.48051640389178       -9.12410060344459        0.61570354599184
C           -1.67081429685007      -10.37077948115306        0.25929034788874
N           -0.21696316663546      -10.10524689665960        0.20706269166937
C            0.65219381357278      -11.26943385559555        0.37899408815303
H            1.31013761956426       -2.72131344027965        3.82317416229799
H            2.06246752535595       -4.17753488714710        3.16330854565580
H            1.24680079259440       -3.05654715001312        2.08953252324146
H            3.84033123466491       -2.45126369509497        3.63464427217662
H            3.00752869207748       -1.31038664524761        2.57152318077223
H            7.55870135322505       -1.64909494185813        1.01596180915545
H            8.97494975456948       -2.21198828332019       -0.91668147267134
H            8.00209353264421       -3.38230312608209       -2.84668760659930
H            5.62427542376263       -3.98486637174495       -2.84286826749385
H            4.34844202836109       -0.89800926246927       -1.40380731768078
H            2.77187908370050        0.90310123652712       -1.71040192315558
H           -0.22951943318563        2.72260857921285       -2.23977663028993
H            1.39782462697531        2.17772687786394       -2.41647120867594
H           -0.01507052838928        2.63957189690235        0.27611262767915
H            1.19977601476362        3.71027042178502       -0.42131377873878
H            1.63928046955655        2.08844269628733        0.11225936441437
H           -1.54700855334461        0.03358575639333       -0.57482571375142
H           -1.59494999289590       -0.37062358045979       -2.28192359109876
H           -2.13316092611289        2.41748604820569       -1.13413707994868
H           -3.35119297632661        1.30974979626125       -1.74141084046864
H           -2.17375219461254        1.99691866723031       -2.84761251103488
H           -0.46120810374470       -1.87119807699997       -1.29237025874479
H            2.35108497025593       -9.41434069674809        0.13310623561295
H           -0.68825526108185       -5.65087738816756       -0.66624302442567
H           -2.54261877362336       -7.00814598790019        0.10714890588426
H           -2.40138955537257       -8.06982002345494       -1.27735006797184
H           -3.55638590034127       -9.31829986480893        0.50813909620877
H           -2.32514722574223       -8.88228483900130        1.67394415417597
H           -1.97290000695018      -10.75705948036079       -0.71883028212416
H           -1.85242621070591      -11.17114014483468        0.98434737947638
H            1.31566966632707      -11.36850255365183       -0.47713362103766
H            0.06385177142262      -12.18060807032075        0.45829998416775
H            1.24273216519928      -11.16115903607525        1.28599164814703
