61
 energy: -10.674002124916 gnorm: 0.000720383463 xtb: 6.5.0 (97a52f5)
C            0.81453349172649        3.08411288706840        0.27537684967475
C            2.29403537499948        2.81297573519836        0.09947288932174
O            2.95853661846399        2.70956396723222        1.33708986676915
C            4.24969281783956        2.29371553453966        1.16222532631811
O            4.75515369877041        2.09639161416586        0.07360410830797
C            5.05395321665026        2.08048592510431        2.39603575179412
C            6.39338727394833        2.43253348841851        2.37777362438166
C            7.16840461284118        2.33368392010664        3.50969501139215
C            6.60837657046421        1.88680404542421        4.68960085228430
C            5.28644022530607        1.51742072030080        4.72660081930346
C            4.48416375790074        1.57254150770353        3.58450195489147
C            3.08289660404681        1.12629323945302        3.66904457367744
C            2.48190604740179        0.21767326600943        2.76079792869089
C            3.21481266922100       -0.41515751284188        1.73348869424161
C            2.62082038091570       -1.25270210409775        0.84579034183984
C            1.23724108798619       -1.54203626432944        0.91721213978519
N            0.61542358816864       -2.38544310864712       -0.01626846800043
C            1.35618699383486       -2.88606358857412       -1.19213096207525
C            1.47547118517965       -1.83771722757979       -2.27860489715690
C           -0.84986124163318       -2.61201453431268        0.05081536550519
C           -1.42676450341701       -3.61775486199491       -0.92787968622224
C            0.51385910454346       -0.95459630916535        1.94239437034130
C            1.09353368397640       -0.09086995492510        2.87697267288193
O            0.28730534681660        0.41956839371820        3.86942147138348
C            0.90217875266447        1.23370871926502        4.76437911903783
C            2.27093624561944        1.60149235574924        4.70392997858726
O            2.59255620277135        2.43547303906407        5.75913136749536
C            1.43788981761812        2.61023655802375        6.49536875209066
C            1.19934023921226        3.34797466703516        7.65031223781319
C           -0.07316220514157        3.36397273470633        8.21242015624602
N           -0.31939998997973        4.08880772845202        9.35652920816306
C           -1.11880374861697        2.62681457325178        7.59757561528431
C           -0.90675274213411        1.89797326544467        6.46527888120888
C            0.37637706660511        1.88397530914713        5.90592913951333
H            0.29334374952896        3.16408580137155       -0.67986951784104
H            0.65950119316717        4.01141705715256        0.82713842504036
H            0.34606179149298        2.28619872311305        0.85202881719577
H            2.79110499526586        3.61095903952944       -0.46914616541431
H            2.46764807178038        1.87360918559689       -0.44358918543759
H            6.81633971279771        2.79845019365967        1.45736993387638
H            8.20786587520029        2.61680111849170        3.47873919240726
H            7.21026774906236        1.82610460885655        5.58141456571956
H            4.84707904023362        1.17337402654415        5.64761430802573
H            4.26881687706533       -0.21593490701511        1.65287900456970
H            3.21848453881005       -1.69628858586380        0.07122499452474
H            0.86764631285263       -3.78640381641840       -1.57222997467070
H            2.33911061358160       -3.23373323606829       -0.86123046527635
H            0.49077773012074       -1.51735582801193       -2.62045878908119
H            2.02688760406499       -2.20580448258526       -3.14580229801232
H            1.98808366586484       -0.94818887312792       -1.91141993525141
H           -1.33192138168818       -1.63831540914283       -0.08520195086972
H           -1.07835675674194       -2.93359876140796        1.07201542048898
H           -1.25273168662693       -3.31575423988841       -1.96101414052801
H           -2.50602163873621       -3.72685583529580       -0.80355967752563
H           -0.98567371248801       -4.60509260116670       -0.78613427873452
H           -0.53576905699689       -1.14716438843742        2.04690102236909
H            2.00103339664990        3.90178971358369        8.09956649152521
H            0.38548173908801        4.61137120139622        9.84242682866914
H           -1.21537700731804        4.12066847396020        9.80599317130667
H           -2.09587821802096        2.65229098942248        8.04591635644483
H           -1.69651344257549        1.33744310364322        5.99639279169601
