70
 energy: -11.650422550589 gnorm: 0.000531017891 xtb: 6.5.0 (97a52f5)
C            0.09436710511875        2.98598787174245        0.45746603029489
C            1.32897727613660        3.11150380265493       -0.41083228237801
O            2.49685995816371        3.28371724091049        0.35869022582803
C            3.61727205362192        3.23845374899856       -0.43008467683521
O            3.57915041805080        3.13706340351484       -1.64545698985470
C            4.92668357437748        3.33290964094387        0.25489779881595
C            6.01158923358438        3.80668194611891       -0.46828465022095
C            7.24081605212960        3.98357826998300        0.12069022805632
C            7.41416062917909        3.68677093102111        1.46222078476223
C            6.36704352094275        3.19921051642529        2.19945071173984
C            5.09884145817337        2.98715103893040        1.62654538275032
C            4.02446099024503        2.38362497233288        2.43552668754559
C            3.40362818484331        1.15725182108858        2.04371619158420
C            3.80976724721221        0.44690221327845        0.90413640537828
C            3.18758658142161       -0.70858030436196        0.52210187753119
C            2.11901766825192       -1.23956271301852        1.26341852757348
N            1.45127521276588       -2.41121888555566        0.85859228621104
C            1.73708593469585       -3.02287501053002       -0.45494621036885
C            1.07484116322571       -2.27024447012379       -1.58966526730669
C            0.28081007037128       -2.89626553797420        1.62983712247158
C           -0.32151682574514       -4.21525241987489        1.18457396554339
C            1.73271574007308       -0.55383679615007        2.41384684497575
C            2.34819977768073        0.62144551921422        2.82419118574217
O            1.90493379316250        1.22763350890250        3.98807805428113
C            2.51260418786923        2.41009792278574        4.37765548355696
C            2.06093616782569        3.03453108939805        5.53298988835565
C            2.58718580676138        4.24317698949926        5.98280798013190
N            2.10765462849348        4.85237377278764        7.15493808204985
C            1.01063445270907        4.27562255806007        7.95445901620431
C            1.49825230958338        3.19807780076277        8.89954973082348
C            2.64780933459503        6.12782478068616        7.66200525479260
C            2.03025336806910        7.32389740041716        6.96806955791795
C            3.60671990576084        4.83326545751606        5.21869089584028
C            4.07513807613167        4.23550072707029        4.08168083547991
C            3.56181621966898        3.00868701182071        3.63366475451496
H           -0.81304163268897        2.84956183945718       -0.13284785376202
H           -0.03206658605609        3.87585899218033        1.07411589446888
H            0.18838893447805        2.13748436120799        1.13560420810822
H            1.26056423514358        3.96805735831538       -1.09504163426576
H            1.47516286956365        2.21612806197543       -1.03035827571787
H            5.86727933024399        4.04803942471999       -1.50757152183634
H            8.06794233090884        4.35869125752452       -0.45902114453455
H            8.37768666760296        3.82988761326628        1.92268017983363
H            6.51567062272449        2.93572650577142        3.23235835416414
H            4.62408891518421        0.83146893164890        0.31649265616191
H            3.52365641566199       -1.21067647940711       -0.36596864350456
H            1.41984179063618       -4.06838292165855       -0.44499009698639
H            2.82186773558807       -3.07220631763723       -0.58653726571910
H           -0.00790452842857       -2.24750572715865       -1.46262126250729
H            1.28762307333241       -2.72053121751763       -2.56092124871050
H            1.41179213362065       -1.23385675518452       -1.62287920855765
H           -0.47752945958697       -2.10715178319854        1.59617901640749
H            0.59666125239208       -2.97890036112430        2.67477256935597
H           -0.69161958844567       -4.16031997626412        0.16036617644146
H           -1.16418294305557       -4.50666165008020        1.81456415562283
H            0.41132672052064       -5.02146852300682        1.23412016389429
H            0.92709271535819       -0.92073742272341        3.01878099347844
H            1.27442158722239        2.55044173883074        6.07743095300265
H            0.24271423599116        3.89745817134909        7.27314581002229
H            0.52514295067931        5.08541196849263        8.50884929595169
H            1.98328917925104        2.38728974380762        8.35552798492880
H            0.68464637618032        2.76707418728469        9.48572563787517
H            2.23537491100300        3.59783652227126        9.59680269882670
H            3.73642753772786        6.11568281221430        7.55335587838059
H            2.46917147093838        6.17196107130417        8.74135286284992
H            2.20471175985666        7.28848978487148        5.89246808602601
H            2.43281605020369        8.26781842635003        7.34024680423109
H            0.94948648535757        7.34172095192709        7.11332172764499
H            4.02161232882911        5.77595627928660        5.52454222729363
H            4.84188284695524        4.72003731158283        3.50428210736787
