41
 energy: -7.486851234655 gnorm: 0.000902489455 xtb: 6.5.0 (97a52f5)
C            1.84383768408934       -0.72698112359382       -0.80215886217587
C            3.32985197058387       -0.45913541364555       -0.68100222798019
O            3.94626183582561       -1.30941336435141        0.25971850321766
C            3.61118265779706       -0.95318212393662        1.53627549105181
O            2.98684528081395        0.05135493558868        1.81824301258610
C            4.07416213423750       -1.85540633915149        2.62399083950684
C            4.67656717679121       -1.41667869362709        3.75735238748254
S            5.04800610174520       -2.73741922224118        4.80494156972487
C            4.32359213210709       -3.90679687434714        3.70559860924580
N            3.88954896104861       -3.24111217239967        2.64304882085660
B            3.22156084174462       -4.03113240946571        1.51404000667778
F            2.09051551750676       -3.36144307215909        1.10322804370745
F            4.12782600888104       -4.17720823821352        0.48695659533560
O            2.86490402279581       -5.35000686522543        2.03470890113481
C            3.50455235947151       -5.89474702034144        3.10893044560151
C            3.31976334746409       -7.32549215828781        3.31674422592129
C            3.92088362815506       -7.98031949663751        4.39047400924434
C            3.74003714131310       -9.32539909412615        4.58174691551190
C            2.94905875228729      -10.07843034049318        3.70589331452520
N            2.76362295872703      -11.45926287814813        3.90034895695232
C            3.23820968693597      -12.13641776700488        5.10763898587440
C            2.09066543920209      -12.29220935933662        2.90316906131684
C            2.34941629200679       -9.41369511831033        2.62958986572100
C            2.53108499434317       -8.06817023714951        2.44109244628562
N            4.24469910140668       -5.23458467273124        3.95408353768718
H            1.36756166221882       -0.09422611823563       -1.55289160685393
H            1.35062708638385       -0.55144261386371        0.15447231461917
H            1.66603714895557       -1.77013173117313       -1.06481189965944
H            3.53398887651564        0.57626340636649       -0.37359441247379
H            3.84496074844110       -0.62231681233333       -1.63792379022304
H            4.89500725784650       -0.38875920362155        3.97368714449948
H            4.53095512306930       -7.40822786396055        5.06785402078491
H            4.22293867117235       -9.81186674618675        5.41008411472730
H            2.92950722303275      -11.58221357981635        5.99139778143167
H            4.32332533910673      -12.21152943592074        5.08818650893674
H            2.82190667346939      -13.13862709393639        5.17926568889007
H            2.50699208371857      -12.10094995024987        1.91652162215142
H            1.02511143952305      -12.07316855744265        2.89546870560198
H            2.22613422151119      -13.34832395399047        3.12452716802429
H            1.72754973157647       -9.96475772322804        1.94727739718494
H            2.06619068617699       -7.56098290307382        1.61259578734707
