85
 energy: -15.621465678346 gnorm: 0.000695387740 xtb: 6.5.0 (97a52f5)
C           -0.32162113207549       -0.21089937130734       -1.70402643940581
C            0.02896261824051       -1.47855796578344       -0.95153601733595
O            1.18495715347649       -2.10089106396190       -1.46908833223272
C            1.45512782398590       -3.27246598295491       -0.80562583195275
O            0.78440914271515       -3.69013314982899        0.12404099917487
C            2.62940368296038       -4.02941538452817       -1.26514653670396
S            3.29590966179978       -5.35387788438273       -0.36967853072410
C            4.57192610312523       -5.62261606511941       -1.52207239259303
C            5.57351322427446       -6.64957419498787       -1.39792198425355
C            6.59563436785159       -6.89657231622043       -2.27604903252779
C            7.42263593349531       -7.97941614815132       -1.90641303706694
C            7.05499391970091       -8.58851181488560       -0.73559293895408
C            7.70200962724966       -9.71913188516082       -0.12213711295637
C            8.78785840106025      -10.39149254716128       -0.60667803041730
C            9.22352811131891      -11.48056144220903        0.20420010917571
C           10.40832650192811      -12.29527062334462       -0.15795723202897
C           10.50440972385925      -12.88852715431381       -1.41153118735555
C           11.61447714652468      -13.62532088225698       -1.75915996147605
C           12.67317559981893      -13.79671511337513       -0.87693608794082
C           13.89650214611155      -14.62212477804067       -1.30696880461578
C           13.45145960436336      -16.05890654576550       -1.63934201706754
C           14.53455927927983      -13.97596485551619       -2.55150116458791
C           14.96188033616443      -14.68835054806438       -0.19475428193613
C           12.57545465952825      -13.20010771338383        0.37417716212892
C           11.46794662020303      -12.46143966216474        0.72717669052933
C            8.43867709373490      -11.65282216600976        1.32600609887873
C            8.56206228377804      -12.69197646036500        2.36054357446822
O            7.99935149354456      -12.55252822704197        3.43411731014456
O            9.31413469160357      -13.79408682846080        2.03655757187232
C            9.34924365044826      -14.71286071490249        3.10734134907100
C           10.23316624422639      -15.90654522354883        2.80879609469835
S            7.19962519882305      -10.44294415366791        1.37790918033434
S            5.65452935582652       -7.78532727505512       -0.07759577048261
C            4.45955128156493       -4.71980295891156       -2.54120087136884
C            3.36108936511236       -3.81964078971630       -2.41577904461835
C            3.05807179404601       -2.79668350835517       -3.44780682707345
C            1.88698185421742       -2.85990990734176       -4.19478599492464
C            1.60248610684067       -1.90094426480004       -5.14049483222482
C            2.47129860601235       -0.84449103059937       -5.38045257053791
C            2.10791677469827        0.21473227940083       -6.43323171839179
C            1.99401485021848       -0.45857598945690       -7.81380239703213
C            0.76145352294203        0.86411402809412       -6.05936885236138
C            3.17320096039244        1.32581828138731       -6.51865521618600
C            3.64784237644345       -0.79296926499399       -4.64244000586101
C            3.93888196283500       -1.75001367416930       -3.69552455342659
H           -1.21757424719799        0.26969920927378       -1.30708343798059
H           -0.49322801268213       -0.42511428596620       -2.75939592452638
H            0.49776135972782        0.50661674512036       -1.65165606799918
H           -0.78801586825202       -2.21130119566851       -1.00013184635506
H            0.21302276617803       -1.27670133421240        0.11239672128085
H            6.75289676460776       -6.31801415820090       -3.17292741947680
H            8.26495259341579       -8.30271954792881       -2.49785972994137
H            9.28591644290261      -10.12320639769624       -1.52390768932097
H            9.69247409752644      -12.76940583104972       -2.10807978778515
H           11.66284112665006      -14.07744061835814       -2.73435968142431
H           12.73249508593643      -16.07199272285175       -2.45675955593628
H           12.98333120759878      -16.52649664002795       -0.77421719316073
H           14.30229771015130      -16.67155462590506       -1.93470342889881
H           13.83815972785037      -13.95441072343234       -3.38808828622108
H           15.41779405709482      -14.52929532154893       -2.86818579923120
H           14.83632596079414      -12.95083919069027       -2.34038446992907
H           14.56397818745150      -15.16196022767215        0.70173380204993
H           15.31798251980497      -13.69279826957353        0.06692044286007
H           15.82327616761002      -15.27065852258471       -0.51974484036304
H           13.37179871407248      -13.31490916776366        1.08745349116940
H           11.40272232703326      -12.01396134653040        1.70392593532733
H            8.31413283984733      -15.02010335667992        3.30861631607179
H            9.69800742147392      -14.16987850967101        3.99618850950830
H            9.88625388104296      -16.42811315230808        1.91648162583699
H           10.25149738661573      -16.62205460980550        3.63271736288776
H           11.25783045879894      -15.58785049641039        2.61642840948703
H            5.12989337888244       -4.69209772352872       -3.38450644935801
H            1.19661355173969       -3.66508498964506       -4.01103951915423
H            0.68689614223719       -1.96929485906776       -5.70151626421584
H            1.21507632709264       -1.21929003908928       -7.81988568299185
H            2.93315029287252       -0.93869942345826       -8.08598615011361
H            1.75241415616115        0.27198350771686       -8.58483750133233
H           -0.04222961179637        0.12994539823049       -6.04168691496130
H            0.48927087663400        1.63714691304443       -6.77686533597706
H            0.81729115476648        1.32353327206081       -5.07331915957460
H            4.14062263649945        0.92068367552147       -6.81269143851891
H            3.28544950672406        1.83495500715466       -5.56222561692572
H            2.89185911565376        2.07399613792380       -7.25877611820728
H            4.34764877134977        0.00715940051328       -4.80453194415518
H            4.85000330070484       -1.69188903791661       -3.12523989409642
