39
 energy: -7.924445464022 gnorm: 0.000538217121 xtb: 6.5.0 (97a52f5)
C            1.33858538812674        0.35261603734436        0.04125957856782
C            2.69202538454895       -0.32670445366766       -0.00600153941129
O            2.99006548289424       -0.84814028778022       -1.28186213170720
C            4.20819679294656       -1.48091492417378       -1.26452676579174
O            4.90481065275304       -1.55773899195420       -0.26390369415696
C            4.65903921271038       -2.08734431369709       -2.51007564609360
S            6.13956685315723       -3.01090612794182       -2.63419686604355
C            5.90247119776863       -3.35383421592730       -4.33230071768270
N            6.72982316351895       -4.06821732712479       -5.09059495481850
C            6.37198459816808       -4.22067589073816       -6.36786742563721
C            7.30520179838398       -4.99653821328259       -7.22170650813359
C            7.68599404459132       -6.28251075008968       -6.84580779321703
C            8.56463621282277       -7.00954867235555       -7.61670367785631
C            9.08662602221734       -6.46357403806956       -8.77182386621222
C            8.73245100147776       -5.18448989286427       -9.15079084465011
C            7.85386219509757       -4.45398854555806       -8.38295999008730
C            5.16784500085176       -3.70818234660174       -6.91101783089950
C            4.79401458692187       -3.97310243053847       -8.32840759475539
C            4.32696925021623       -2.95372993610516       -6.10987081214726
C            3.12695487655306       -2.42254943875709       -6.59553726703687
N            2.11839651976095       -1.97244268382832       -6.95598759264447
C            4.71952814129572       -2.76698860916943       -4.76778725327954
C            4.01968225364578       -2.03071366190710       -3.72573931300591
N            2.84907150092412       -1.32998192486576       -3.94257242134409
H            1.11374712823776        0.75258387387766        1.03146904055046
H            0.54731241187952       -0.34801396084039       -0.22627547922109
H            1.29681014803709        1.17567743110732       -0.67230148247082
H            2.74738362026156       -1.16239909676901        0.70572634720568
H            3.50149432078144        0.36944179774258        0.25487312620488
H            7.28020154262408       -6.69985669423670       -5.94060721666743
H            8.84683772903425       -8.00538577441907       -7.31625364040804
H            9.77460488194125       -7.03398073312230       -9.37410737917813
H            9.14759030158250       -4.75486540238574      -10.04781003767255
H            7.59477759470936       -3.44827673669020       -8.66456059116932
H            5.24924073451396       -4.89271823663986       -8.69597532425676
H            5.10856804103128       -3.15204673338883       -8.97272874245458
H            3.71447616561175       -4.08328371833005       -8.43169774326563
H            2.32925996935954       -1.42347579978557       -4.80116871354973
H            2.30765327904283       -0.97542857646979       -3.17044923560173
