32
 energy: -6.192937722957 gnorm: 0.000712709953 xtb: 6.5.0 (97a52f5)
C            1.59483443670200        0.14736407723112       -0.90661118529202
C            2.75741348962774        0.08655242200866        0.06262202134186
O            3.00830544887650       -1.22254550838323        0.52170294841662
C            4.08036501102815       -1.22799185835965        1.37842839443906
O            4.70186829285671       -0.21844060553739        1.67191949852251
C            4.46903534871831       -2.51049665332577        1.94807319238511
S            5.80327879511273       -2.68451120656345        3.06828139688404
C            5.58124827465109       -4.41190586611096        3.22184623436278
N            6.33083952858463       -5.21924203679939        3.97022087461195
C            5.99892429392022       -6.50553106698180        3.95608208774091
C            6.83930309761569       -7.41209217176413        4.78669371953594
C            4.91356530767041       -7.02873903844867        3.23033245097316
C            4.60229250463558       -8.48580758072392        3.27124410155223
C            4.14781501134737       -6.17920018049101        2.44067712305348
C            3.06760233552606       -6.64379306132109        1.68439360156829
N            2.16036855396194       -6.98688335556115        1.04461066201922
C            4.50512025293419       -4.81680903139882        2.44111749540017
C            3.87853899786333       -3.72648226126305        1.70589447760381
N            2.81371741648955       -3.90071946779856        0.84398622292145
H            1.40530045872902        1.16310761222960       -1.25804396323006
H            0.68347362950052       -0.22227085013147       -0.43645657725937
H            1.78782862794605       -0.48021702274190       -1.77678518423516
H            2.57602558054013        0.70932735952190        0.94983943932454
H            3.68635423043698        0.44930452258588       -0.39933473528989
H            7.74252969923481       -6.89433896109986        5.10834352846250
H            7.14591791201253       -8.29508253451600        4.22626582110986
H            6.30316473650098       -7.73182549455069        5.68005435507908
H            4.72569133565325       -8.89150806327617        4.27498535262959
H            5.25280924091627       -9.03924267279383        2.59398566018530
H            3.57161516631112       -8.67570628450806        2.97231078342036
H            2.34123711978351       -4.78543187444243        0.74196180788977
H            2.33486586431627       -3.11603128468242        0.43136839387496
