42
 energy: -7.788841404467 gnorm: 0.000648808113 xtb: 6.5.0 (97a52f5)
C            1.63130571142125        0.31803425223169        0.36733660958747
C            2.90462109105851       -0.37383021330424       -0.07554795867226
O            3.10687990720510       -0.27550021415060       -1.46832645214432
C            4.26136075008952       -0.92083936571853       -1.83702747387703
O            4.99460729685337       -1.49094280095862       -1.04364043003976
C            4.58233269396795       -0.89105708268037       -3.25752579508121
S            3.63394380665725       -0.03124081783427       -4.45249135880047
C            4.68884856552176       -0.49656567913297       -5.76834509285039
N            4.53335061046928       -0.13980075936243       -7.04224739972697
C            5.44314582218988       -0.60003187238697       -7.89335040367269
C            6.53359152526298       -1.40723105220104       -7.52259152932328
C            6.69530755399326       -1.75704112460995       -6.18717027339265
C            7.77563338500088       -2.52846012978338       -5.74704460067074
N            8.66142326986588       -3.16133243907623       -5.34040288417519
C            5.72316172502878       -1.28801631357266       -5.28310762884991
C            5.65081839353720       -1.51980218708256       -3.84733149833932
N            6.54566243953368       -2.30631801977121       -3.14815479239123
C            7.54003492450527       -1.89399102988165       -8.52932406531847
C            8.70034434343090       -0.92395195751472       -8.79568317766634
C            8.35989946590658        0.28983834330383       -9.67251800513421
C            7.41379204645159        1.31652159854209       -9.00871303029195
C            5.96579977705427        1.25019131184600       -9.50507337335904
C            5.30837696952822       -0.11638886105148       -9.30548347155504
H            1.47393065753520        0.24290117673918        1.44455370954503
H            0.76599053718450       -0.11737657956054       -0.13198605911929
H            1.65710977959025        1.37481287615315        0.10203521983544
H            2.89073045593207       -1.44358572181710        0.17614255725118
H            3.78945037556920        0.05824056947346        0.41267920802176
H            7.39718979497251       -2.64724314166746       -3.56575199632708
H            6.53286427225030       -2.31989397029152       -2.14124991358946
H            7.04723444021673       -2.16042384717362       -9.46832134525283
H            7.94055512065083       -2.84748669102185       -8.16315202991505
H            9.52569289103821       -1.47763349085050       -9.26412799742674
H            9.09956499321663       -0.57602512289626       -7.83602368596473
H            7.92743369752827       -0.04944311259802      -10.62072036049655
H            9.29509084932977        0.79097252204338       -9.95940529387779
H            7.79803975029316        2.33474724860509       -9.16103021963272
H            7.43486398115108        1.17178316462130       -7.92189486671244
H            5.92754622731806        1.53042872785075      -10.56503674747833
H            5.37080106738830        2.00895607036450       -8.98102493157060
H            5.72310075903208       -0.84721774930696      -10.00373469851293
H            4.24144827526918       -0.06381651451614       -9.55220646303365
