14
 energy: -2.164264830039 gnorm: 0.000608414539 xtb: 6.5.0 (97a52f5)
C            1.03115630453965       -0.07846399088135       -0.03126430034452
C            2.54350112932627       -0.14888719063163       -0.03597132421736
O            2.99933356687021       -1.49582146955706       -0.12905853870780
C            4.36431411427810       -1.68323473046159       -0.14246838125235
C            5.32859979136927       -0.53709856441338       -0.06294643228529
O            4.85277816138437       -2.79279096647982       -0.22004617971079
H            0.66615957768582        0.94758682764148        0.04007436028553
H            0.62410796265131       -0.64210684395161        0.80863552041504
H            0.62438770360885       -0.52032444270587       -0.94125286934622
H            2.95207432721823        0.28318984970352        0.88625300965560
H            2.95238382320205        0.40588390955711       -0.88991224538925
H            4.84843640509955        0.43518379873517        0.00572883655266
H            5.96864172936448       -0.53054210975960       -0.94368334971296
H            5.97034540340183       -0.65356407679536        0.80882189405772
