128
 energy: -22.231254414533 gnorm: 0.000541774745 xtb: 6.5.0 (97a52f5)
C            2.22475590494998        1.79577693728939        2.63727910676460
C            3.26601163297512        1.25953311576599        1.67912749361568
O            3.81755866755395        0.02362590218064        2.11910538366659
C            4.53681798174888       -0.67199692460907        1.09575598020091
C            5.71979888106301        0.14357725151875        0.56273663853983
N            5.30811789373425        1.18580972778213       -0.37018996844183
C            4.58115205044750        0.88637814601025       -1.54074624315474
O            4.22868364515940       -0.21995041834378       -1.92442027987046
C            4.35469957975458        2.17981425154077       -2.16810138084230
C            3.72533681173667        2.79950544621178       -3.25075862769474
C            2.89631745919101        2.12842312484214       -4.24000204888572
C            2.72981760283435        2.50797929662966       -5.56220988087129
C            1.83401474461993        1.59462922599150       -6.13611618368072
C            1.29119241968178        1.47479283351535       -7.42654588354878
C            0.41532685890571        0.45449690186541       -7.70279568287428
C           -0.17508667310170        0.33439123832084       -9.11680444542086
C           -0.92843293958809        1.63188631512953       -9.46712991708575
C            0.96666180881939        0.10941528754896      -10.12573309555752
C           -1.16314580797799       -0.84350741274653       -9.23011280446123
C            0.08646213083941       -0.46259645948358       -6.67472660658429
C            0.59856375541607       -0.38383602457341       -5.40087076559150
C            0.26258966018334       -1.35558724415757       -4.26890319003256
C            1.57099561585259       -1.95331674808953       -3.71855042455512
C           -0.45332786798450       -0.58147764709399       -3.14842766169201
C           -0.64684350390112       -2.50249279349546       -4.74765858288118
C            1.48740994204337        0.67481573216403       -5.12420616620215
O            2.13654314380087        1.00810047265079       -3.95965287906845
N            3.93586345961631        4.16911437605143       -3.11160421178712
C            3.32851533331903        5.23411611304716       -3.90510945223356
C            1.79540802823502        5.15619600963390       -3.96144482140181
O            1.17065804534629        5.67321812484819       -2.78792466206770
C            1.42449687366979        4.92183610525602       -1.60802881462012
C            0.78412628555278        3.54890297243239       -1.59507537822200
O            1.31812918089390        5.77462391291905       -5.15377088857456
C           -0.09617589042754        5.78241630876334       -5.18055598630612
C           -0.64205729422542        6.42298698575475       -6.43991908796660
C            4.72425301456989        4.45668915837362       -1.97805096689795
O            5.08520204875604        5.55611399894999       -1.58249338736658
C            4.98041243748294        3.16078792775008       -1.37004535814021
C            5.56514340325126        2.54650411816948       -0.25943228614410
C            6.23820682788655        3.19286860347744        0.84555409805399
C            6.45351858689562        4.55506927064294        0.95705833236713
C            7.09929363574182        4.76791536041136        2.18243335831483
C            7.55487459253357        5.92850404512365        2.83005989202935
C            8.15597197851225        5.82784494755400        4.05992378812263
C            8.64955393166293        7.10298915020812        4.76225568306818
C            9.69086057660553        7.80563755229483        3.87061355289637
C            7.45467719693721        8.04429736040098        5.00459329710061
C            9.30700632007185        6.79396808427250        6.12203837246688
C            8.29768344629255        4.54781044437155        4.64881806757904
C            7.86428411361646        3.38782593701058        4.05044774251891
C            7.99666907156905        1.99594804135309        4.67028568127895
C            6.59376860680748        1.37657632112334        4.80726260136878
C            8.85653537490663        1.11952169587347        3.74283677288708
C            8.65637431484874        2.04526319766105        6.06125339589698
C            7.25370261323889        3.50036139132916        2.78380038190445
O            6.72950734134450        2.53390526845981        1.95573962699904
O            4.96720963720375       -1.98140722706814        1.50026283554269
C            5.03928181077250       -2.89162375755296        0.40545131272449
C            5.69014012703778       -4.20064101791778        0.79853847505676
H            1.81315624588711        2.75095233360741        2.30565134533534
H            2.65236318771278        1.94057946369059        3.62977540382001
H            1.39873739009247        1.09175934844076        2.74255891211415
H            4.09598228815252        1.96709957433824        1.57524225582465
H            2.84044018146738        1.11335903163593        0.67836364105327
H            3.81176345516216       -0.82819738072017        0.28271604718120
H            6.43079110140146       -0.50479468891572        0.04718433358791
H            6.25541285682052        0.58996023275496        1.40062803645677
H            3.20142818447169        3.33456066801258       -6.06097410950143
H            1.56998021986601        2.18660259523181       -8.18094275596188
H           -0.25994344732641        2.49120222283682       -9.46642018422980
H           -1.72140734112805        1.82320552308471       -8.74509772889967
H           -1.38110077344853        1.56465702573721      -10.45571131062713
H            1.66681720711467        0.94332997147275      -10.12318513134722
H            0.57747957290974        0.00407245711298      -11.13774052742344
H            1.52261045099369       -0.79507414725933       -9.88178474579834
H           -1.99537525965742       -0.72536808766623       -8.53716377982052
H           -0.66929936491789       -1.79214286207860       -9.02306782440293
H           -1.57845026233300       -0.90294017667977      -10.23557151657889
H           -0.59484422641210       -1.25957762311138       -6.90022300558753
H            2.22596406929623       -1.16913288694930       -3.33914508882229
H            2.10868536072587       -2.48942054727515       -4.49927268806924
H            1.37193265746811       -2.64852917104288       -2.90423846108999
H            0.18273430597949        0.21626544478393       -2.76702438460014
H           -0.70564474754291       -1.23857160803549       -2.31714804485873
H           -1.37354263692491       -0.13020417404295       -3.51724521291655
H           -0.17256218561858       -3.06952391089591       -5.54771896662383
H           -1.59996563474684       -2.12133685259555       -5.11194949122146
H           -0.85848300380528       -3.19345425553628       -3.93247723561699
H            3.74148572864561        5.18907893960374       -4.91498368088191
H            3.62476869018366        6.19940143933995       -3.48942225047025
H            1.48975935300570        4.10562844790120       -4.04326678255208
H            1.04448159727929        5.52866768358851       -0.77575090532702
H            2.50795671472539        4.86575843617537       -1.46462754315187
H           -0.28725276477788        3.62067254757733       -1.78390229574367
H            0.92090436090147        3.04589512790174       -0.63596653730269
H            1.20480335155529        2.89809151150388       -2.36052540401199
H           -0.43557843778710        6.31664025083106       -4.28329598008199
H           -0.44185541747088        4.74511536285004       -5.08329775696259
H           -0.29657598197103        7.45333174468524       -6.52899689077196
H           -1.73345062635279        6.43025263639328       -6.45883670878812
H           -0.29372752566831        5.89016324200326       -7.32515808243390
H            6.15673920748773        5.29928433784034        0.24174519884168
H            7.42404951010750        6.88159422361518        2.35249869410270
H            9.26045723560018        8.10004484935325        2.91481923736807
H           10.53312794802519        7.14476762482820        3.66934884737912
H           10.07438442051742        8.70383166168913        4.35322872868774
H            6.98703024661590        8.34000105450071        4.06682337189623
H            7.77082695418503        8.95088346745108        5.51926772418619
H            6.69781857223734        7.55499643006812        5.61652192261576
H           10.16975038408479        6.13987701514728        6.00126477298046
H            8.60058036819104        6.31749832230685        6.80072341261382
H            9.65359124516717        7.70976004457516        6.59968162269681
H            8.76505967381997        4.47860804860384        5.61157771314232
H            6.10309883232797        1.31093729986270        3.83723394018635
H            5.96620561800688        1.98353287866761        5.45842374124892
H            6.64680365627366        0.37247332199743        5.22590314817010
H            8.41113805098857        1.05545721783658        2.75120335982625
H            8.95252513136112        0.10836805853838        4.13629961915222
H            9.85603774782882        1.53849193899475        3.63375044567373
H            8.07124788556540        2.65225258713227        6.75094738115378
H            9.66215666745758        2.45950926454467        6.00358693145417
H            8.73531931446987        1.04538386451762        6.48635164847632
H            5.58765312233085       -2.41135372322603       -0.41386757732299
H            4.01603727722775       -3.05539985821407        0.04407092216331
H            6.70536102116139       -4.03302152797440        1.15957885740798
H            5.74102121713444       -4.90285694744103       -0.03570438953596
H            5.13675337437003       -4.67864665753377        1.60742991325387
