90
 energy: -16.251048792334 gnorm: 0.000760728717 xtb: 6.5.0 (97a52f5)
C            5.80072050964784       -1.59783205054120        1.31627340746574
C            6.76053049310466       -0.67300249525610        2.03479623474635
O            7.97031875510595       -1.33446719556101        2.40005649251160
C            8.87824464562789       -0.47541931909234        3.08361926621268
C           10.18408549685846       -1.17832373371969        3.44495397358911
C           10.96240553005046       -1.61278146023205        2.24461405632621
C           10.43838867663432       -2.06325522071138        1.07307854068303
C           11.53976864558592       -2.39319805561837        0.23488271157103
N           12.69131689639738       -2.16594234006895        0.87638869850062
C           12.39963536991441       -1.69620176407759        2.10266017644204
C           13.33724543240823       -1.33636446133594        3.11140972582980
C           14.71426504377784       -1.33310283139526        3.11264883876270
C           15.64461379899041       -1.69314797640706        2.10357204753425
N           15.35804058084914       -2.15973041187546        0.84761979956770
C           16.49286741492591       -2.38205844254780        0.12807084413827
C           17.57901773410610       -2.04409392616749        0.96544773920790
C           17.07406644589305       -1.63506483271365        2.18185648930411
C           17.87772943600212       -1.15055136097562        3.34843251264140
C           19.22681563078200       -1.84306966163642        3.49881694577955
O           19.94441208547959       -1.38193377289650        4.64186360346210
C           21.21360121084491       -2.01694229647529        4.78289702631580
C           21.96459307581985       -1.52390654669114        6.00194060538142
C           16.47049110057071       -2.85328423651741       -1.22291225227516
N           15.32020091151978       -3.11386965189693       -1.85351166251479
C           15.61310943030979       -3.52677840104933       -3.09951992205211
C           14.67701692124186       -3.92177974755437       -4.09626348094187
C           13.30090170585857       -3.95359743775431       -4.08419445581577
C           12.37442703429629       -3.60022598075300       -3.07023081492525
N           12.65640521098675       -3.14623864714684       -1.80871879415244
C           11.51724742960944       -2.89221863386681       -1.10566755136002
C           10.43268061277437       -3.19776126680019       -1.95843938060713
C           10.94665355338053       -3.63975644401881       -3.15894323577836
C           10.14802389303649       -4.01760339892634       -4.36391111796952
C           10.08199032265228       -2.90427346640994       -5.40069373086410
O            9.34336713133390       -3.28698046833203       -6.55861938218025
C            9.31335500053737       -2.26268455726514       -7.55070007060346
C            8.54750764468882       -2.68890955689393       -8.78561138178594
C           17.04860523581972       -3.51639649618063       -3.27431808489628
C           17.81515490178813       -3.92728197326467       -4.49295689866991
C           19.10350520053116       -3.14088032071949       -4.70248211186573
O           19.77261222515626       -3.51506450470591       -5.90514212597852
C           20.97947180599341       -2.78351270996845       -6.11006958065026
C           21.67839775931842       -3.18679149325705       -7.39157424093024
C           17.57350251313995       -3.10687054065744       -2.08650755532343
H            4.87083499000284       -1.09549837648940        1.04291402791804
H            5.54899607623840       -2.45389846815824        1.94304461522433
H            6.25158980043397       -1.98970359616648        0.40410241354030
H            6.30833070332099       -0.27148238686882        2.95023599634304
H            7.02439638873885        0.18608558262367        1.40540634884369
H            8.37158404082539       -0.09824243696280        3.98016147434463
H            9.07967447550894        0.38615374842296        2.43705427573409
H            9.96233536698826       -2.05804018547641        4.05779264111079
H           10.80187446360344       -0.51972446148097        4.06450804999252
H            9.39377348084344       -2.14810854337912        0.83104935852531
H           12.87824324237253       -1.00864965620093        4.02976680063806
H           15.17424856677911       -0.99332780948406        4.02625520807215
H           14.40739656980748       -2.28468858235035        0.51969773261578
H           18.61820185391687       -2.09422890618931        0.69188312494875
H           17.30967145736593       -1.29127756347538        4.27295818580985
H           18.03102838142624       -0.07018543904942        3.25906609923238
H           19.85073760041859       -1.67046696056646        2.61503904592531
H           19.09177866637617       -2.92670554298710        3.59161705448920
H           21.78637518473357       -1.82970468257540        3.86602271971048
H           21.04334775759608       -3.09944534172498        4.83716300951207
H           22.13013131657377       -0.44774948197035        5.94334486223138
H           22.93636795288216       -2.00892052202767        6.11184507324220
H           21.39076330299910       -1.71108006232591        6.91002033897748
H           15.13479834825461       -4.25254257480131       -5.01405845848459
H           12.83597490498764       -4.29915985821082       -4.99353606692906
H           13.60490373356797       -3.01348497712752       -1.47823266039486
H            9.38974527577639       -3.09439727860656       -1.71498694460167
H            9.13273048654090       -4.29418982958549       -4.06143055510633
H           10.57045258605351       -4.91890363210545       -4.81947362510593
H           11.09050262534756       -2.61424141188732       -5.71569767023869
H            9.61283767984966       -2.01052318701279       -4.97396055735290
H           10.35039250721658       -2.00664552438958       -7.80101647778001
H            8.86465600233511       -1.37001843424742       -7.09746220855440
H            8.99450662448272       -3.58005298819318       -9.22718137812167
H            8.52760433164763       -1.90851759788651       -9.54867719356545
H            7.51667584359785       -2.93866052033665       -8.53277151072889
H           17.18891033740622       -3.80844332005117       -5.38215873290168
H           18.04502667436643       -4.99610327035227       -4.43492151691130
H           19.79367492638787       -3.29798598024831       -3.86632135745421
H           18.89118500695719       -2.06671910807177       -4.74822802840450
H           21.62604589837673       -2.95176336245845       -5.23978002528709
H           20.72742458464797       -1.71570040267634       -6.11897958737091
H           21.92174003145782       -4.24969684235602       -7.37963006660428
H           22.60490862981736       -2.63121403793631       -7.54856407382774
H           21.03256931712943       -3.01524382858844       -8.25331471702975
H           18.61558155081891       -2.99406226804862       -1.84308694807921
