94
 energy: -16.530341746582 gnorm: 0.000407167564 xtb: 6.5.0 (97a52f5)
C            0.73342899369599       -0.63902278277618       -0.19205643089772
C            2.20296248159104       -0.46254671934328       -0.50944601878074
O            2.70760140898728       -1.53300688701945       -1.30247513888192
C            4.09112887479625       -1.38566133102364       -1.60570492892995
C            4.63430440130637       -2.57088850039386       -2.39305191672316
O            6.02899420539192       -2.43433968918078       -2.64404880135665
C            6.59398036778526       -3.56948287106895       -3.29126725343925
C            8.10910669130230       -3.44578486036809       -3.38522727440469
O            8.72303436081925       -4.60499293406315       -3.90872308723508
C           10.01421763759105       -4.69533812159994       -3.46500394149448
O           10.53100973121607       -3.88390233833873       -2.71305692310298
C           10.77840497726969       -5.84939664459346       -3.92746794940140
C           11.99905221226908       -6.10986608931835       -3.44128528607908
C           12.82522490835763       -7.21962124773696       -3.82005532595083
C           14.05680839568904       -7.53203309206432       -3.22850126111707
C           14.55810544716050       -8.67644701762862       -3.85670210461901
C           15.74658058699510       -9.38815210603398       -3.62035663290808
C           16.69359789946758       -9.00621179614832       -2.54458777542798
C           16.38455779352981       -9.27690843946686       -1.19673649644958
C           15.10043356674380       -9.93375209014441       -0.82370330556428
C           17.28061570385298       -8.91293251829157       -0.21001669112917
C           18.48634150781168       -8.29982364775340       -0.51067863392629
C           19.45275603311062       -7.95413833694254        0.56798766269578
C           18.79164364864370       -8.05505741835931       -1.84004229949749
C           17.91727058730855       -8.38250578241622       -2.85873008263222
C           18.28742816034755       -8.09449799366405       -4.27266585878197
C           15.97674624852586      -10.49871633529122       -4.44996044970451
C           17.04101384703024      -11.40512483930902       -4.45320372183968
C           16.80634790371585      -12.34412420952547       -5.46780894798457
C           17.65697665701505      -13.44674206269311       -5.81444437373259
C           18.80888461395612      -13.71341833819812       -5.18377938689402
C           19.67451296765260      -14.83443418085330       -5.53102673244291
O           19.38771753854748      -15.59133365836980       -6.44352897540384
O           20.79722429626246      -14.94866616982624       -4.75731845979353
C           21.57885884700451      -16.05219683549899       -5.15558096007325
C           22.77374729112509      -16.25024893211793       -4.23064071811557
O           23.57506223245539      -17.36317888566471       -4.60967945989547
C           24.68796090743319      -17.54495446107217       -3.73998708691737
C           25.55470845846345      -18.72640381163056       -4.15303406366032
O           26.65965685753363      -18.89937461155419       -3.27068764850120
C           27.49782232341271      -19.99064062187199       -3.63802077868479
C           28.65829313616521      -20.15460602993511       -2.67950102100602
C           15.57036334406339      -12.00498724159765       -6.09033864075343
N           15.11141376604895      -10.92444944328659       -5.47123413698852
B           13.78273962889221      -10.21610365652978       -5.78511352220559
F           12.73908158749300      -11.10749660159876       -5.58712824033487
F           13.81734776736577       -9.74943220474291       -7.09054098479775
N           13.60748205510406       -9.02163823631736       -4.83200213042468
C           12.57388660776574       -8.18928891029449       -4.83342059793954
H            0.34248523504046        0.17674449727169        0.41862986885143
H            0.56681270954529       -1.57303930778612        0.34518839448829
H            0.14578563550389       -0.68674105725234       -1.10915145307865
H            2.80118898159675       -0.41638585102737        0.40936087905497
H            2.37965855040025        0.47145893612079       -1.05762254704810
H            4.64267052289561       -1.27741758008692       -0.66544079571142
H            4.22686232714227       -0.45811048211084       -2.17239988555919
H            4.11473442399488       -2.66698976801653       -3.35250041612328
H            4.46863552453545       -3.49900851172186       -1.83540104547012
H            6.14769731261860       -3.66695467911208       -4.28670591460279
H            6.32692417256886       -4.46542746113928       -2.72051335620921
H            8.52379707631861       -3.25944795655842       -2.38679329868436
H            8.39670232180021       -2.59438570569565       -4.01353098250490
H           10.32789256030714       -6.49705518526130       -4.65487133228955
H           12.39053178119121       -5.43928182641496       -2.69642668624400
H           14.53313442596765       -6.99194466901314       -2.42968204817030
H           14.74643628222734      -10.58896725684232       -1.61990552850992
H           14.32711911340047       -9.19011514412179       -0.63015153243787
H           15.21627993374623      -10.54157585810160        0.07399442357014
H           17.03973996465787       -9.11709427952496        0.81799586710991
H           18.93522135753586       -7.71708329159546        1.49791184654175
H           20.05368904134571       -7.08669059014120        0.29385808732430
H           20.12952626040760       -8.78694007233548        0.76082067312612
H           19.73291817294252       -7.59597392146138       -2.08445530188085
H           18.91256192932876       -7.20387514755446       -4.34142485686130
H           17.40187486013822       -7.92180682766878       -4.88464051014296
H           18.83971258467549       -8.92844004909664       -4.70624076148517
H           17.88297722998317      -11.37565979539540       -3.78549616965093
H           17.35152262162641      -14.09009723283951       -6.62003285740131
H           19.13487699857146      -13.08731218307710       -4.37549196819713
H           21.90676106295713      -15.88377445566351       -6.18809316241615
H           20.93865458593534      -16.94216302155461       -5.16039362621143
H           22.43034488325083      -16.40529561045367       -3.20200682514192
H           23.40276344898201      -15.35342122962489       -4.23207309003010
H           24.31187269037063      -17.69155614416399       -2.72154489295857
H           25.28204120677838      -16.62451427332105       -3.73851472907008
H           25.93812334837099      -18.57906208017534       -5.16844569749792
H           24.96323109580471      -19.64830926551716       -4.15580099360842
H           27.85267120056843      -19.80996967148666       -4.66047143771014
H           26.87710519769699      -20.89502840195050       -3.66529286159508
H           29.26322946093494      -19.24793709047301       -2.65137437898832
H           29.30813365546925      -20.98663498946097       -2.95613535218256
H           28.29678363263720      -20.33023036396621       -1.66594419612018
H           15.07851319004361      -12.51384451663595       -6.90151605971718
H           11.72852196191791       -8.25324909455324       -5.49634869444605
