57
 energy: -10.280874229072 gnorm: 0.000626669322 xtb: 6.5.0 (97a52f5)
C            0.82207931990819       -0.02755657340678        0.76542704956305
C            2.27235758976944        0.09598958698274        0.34509712857810
O            3.12189309681450       -0.70370780099409        1.11935755286644
B            4.58112094155003       -0.41724726015106        1.09955281606400
O            4.86414902909852        1.03169449110718        0.97406401849745
C            6.23485761592450        1.32635427075838        1.03085387805948
C            6.51377523983874        2.80900536447558        0.89877726260515
N            5.15440411400493       -0.93064019241154        2.43366957759273
C            4.89275082994169       -0.39602857011442        3.64569841151711
C            4.07608951697930        0.80201417732741        3.91533284452205
C            5.52287853506147       -1.22264007669220        4.58520735148326
C            6.16268318832816       -2.26971528581590        3.92014779270071
C            6.92683696812155       -3.36229490953620        4.56961677891786
C            5.92113920011110       -2.09741148235575        2.53062899008166
C            6.32871555288350       -2.85616920552134        1.41717208971794
C            7.14177387375413       -4.08710987540531        1.57795244158431
C            8.53202875381780       -4.05067840470456        1.43389090743296
C            9.28644191794559       -5.19689647963751        1.59233553014532
C            8.67205184165103       -6.39568629620579        1.89824794963507
I            9.82109281396788       -8.12748916415306        2.14297507413159
C            7.29955884487758       -6.45074868556419        2.04503391079551
C            6.53767867084631       -5.30930091164976        1.88737710717973
C            5.97970956247139       -2.35507312579146        0.14658373902143
C            6.31742268626109       -2.82823927663339       -1.14970078093231
C            7.08917489598283       -4.04687291505815       -1.49418814784917
C            5.84203843089515       -1.89369280734112       -2.06734474041238
C            5.19281290414277       -0.85814898300207       -1.38347569031172
C            4.61403296207911        0.35181213327862       -2.00007266505415
N            5.25581893173314       -1.16964684307833       -0.06754725217210
H            0.16288143836124        0.59538682098223        0.15761689527460
H            0.69557729889824        0.26674943735974        1.80780187893979
H            0.48286243735091       -1.06037177211361        0.67975104294436
H            2.62264233912858        1.13226161805548        0.43353072589145
H            2.40294973520943       -0.20227490427197       -0.70139076111557
H            6.73000108660088        0.75521128615739        0.23542795974695
H            6.61859797738924        0.93326450381439        1.98071698650057
H            6.13353419417319        3.19059172606857       -0.04924314321889
H            7.58104108947157        3.03299037516588        0.94797345903544
H            6.01609464978281        3.36681544244322        1.69262208785242
H            3.71768514577917        1.23527739791406        2.98175163512124
H            4.65760673584250        1.56062826897269        4.43975459221788
H            3.20856996329986        0.55211711648181        4.52659691843141
H            5.50780666305710       -1.07574498250910        5.65144722828640
H            7.08757236581369       -3.15306327444702        5.62784652992346
H            7.90434130149121       -3.48585388593962        4.10266127880800
H            6.39151353454729       -4.30918221906876        4.49326658184511
H            9.00709494116280       -3.11376278364289        1.19978231213639
H           10.35929431928636       -5.16828718631413        1.48045688377216
H            6.83295524000708       -7.39363067473970        2.28495365915705
H            5.46821230059776       -5.34749789252206        2.00184380962303
H            6.75594761885400       -4.90104902642335       -0.90432185601946
H            8.15330358588654       -3.89831074515232       -1.30856850609275
H            6.96613851628828       -4.30336397361585       -2.54712333600706
H            5.96764685886590       -1.94875181623336       -3.13506930250663
H            5.33557890038509        0.82717497826120       -2.66522277347734
H            3.72829356543271        0.10694881299767       -2.58660307771578
H            4.33698836827480        1.08107245361491       -1.24024063531254
