74
 energy: -15.140348747634 gnorm: 0.000799867397 xtb: 6.5.0 (97a52f5)
C            1.20208426863020        2.96417893235640       -0.37924529440042
C            2.71120453577739        3.08925199997688       -0.39132276001933
O            3.34849375277132        1.82922160430693       -0.59920458698948
C            4.74172078123795        1.84160976364604       -0.49054557680215
C            5.50058363093962        2.99210907788480       -0.33703695666592
C            6.88888968318108        2.96329546910556       -0.19700293250297
C            7.67050143149519        4.16086894748342       -0.10016819396863
C            7.27040827677288        5.40590934064111        0.32973274569981
C            7.99262310281754        6.64298058233421        0.04606701158062
C            9.17160627993460        6.87090525611475       -0.66024739742510
C            9.61616217973940        8.16570599930322       -0.81564013834912
C            8.90326356261599        9.23591310216924       -0.28237029552754
C            7.73206819967379        9.02744566009848        0.41371630828873
C            7.27141168005903        7.72532298686203        0.57457349145594
C            6.10158273654130        7.19560468573360        1.26184313321047
C            5.12163891350801        7.83818061776434        2.01074815240905
C            4.17293446222784        7.07638345843414        2.65708512681310
C            4.20835480373438        5.68747272750941        2.58524376597603
C            5.17552933516512        5.04130071499226        1.84746925276366
C            6.11523897622416        5.79373511808898        1.14325148130936
C            7.56207768801189        1.70694978111019       -0.25603432505009
O            8.95040101549395        1.71579778821270       -0.14656528775323
C            9.57468096643978        0.43727949448980       -0.25836712829098
C           11.08397000172673        0.53361939019792       -0.18510673604903
C            6.79805392903434        0.55569345168575       -0.41225255145302
C            5.41481240964097        0.58324177096696       -0.54705698032498
C            4.61761078646373       -0.60169681573433       -0.68830486833624
C            5.02234797103613       -1.88565354275823       -0.94854548512333
C            4.02686799436799       -2.97521780813439       -0.88630168966746
C            2.84059616210290       -2.87770387016296       -1.61621421636811
C            1.88551728424956       -3.86501677741607       -1.55776834181593
C            2.08830463013996       -4.97257390691487       -0.75729436509493
C            3.24482092176529       -5.08727702757277       -0.02054216073546
C            4.24053488394335       -4.10909185117872       -0.07035554084994
C            5.41463834508704       -4.25896874309219        0.78318391238391
C            6.67337521487231       -3.84248422955947        0.54471821409654
C            7.17307333713484       -3.15679768610050       -0.64042907051682
C            8.48681418534965       -3.39085776070741       -1.05142688114333
C            9.00958935261543       -2.77777253200900       -2.16682261536690
C            8.23270668283554       -1.90522074728135       -2.90388563748742
C            6.94339164848187       -1.63647929021119       -2.50930763952834
C            6.39523910393147       -2.23228526257298       -1.37088127773057
H            0.71006575626418        3.92625358876477       -0.22319253275500
H            0.87760658827818        2.28864189278461        0.41296618924011
H            0.84174077976556        2.55020154090207       -1.32155524174525
H            3.07196578235771        3.49676980266758        0.56051496562906
H            3.03966824632838        3.76779219535780       -1.18764988867854
H            5.01821655304931        3.94906205810198       -0.37528083073364
H            8.68715209557988        4.07209188672819       -0.44573407926927
H            9.71778817519619        6.04401861850931       -1.07838275834735
H           10.52741640304013        8.35343249854851       -1.35965054645781
H            9.27169570863126       10.23975302326186       -0.41664343681738
H            7.17575401331003        9.84893506982159        0.82966695429229
H            5.12427460204936        8.91115471186869        2.08923237639717
H            3.40803046606580        7.56064273095962        3.24181895535086
H            3.47477344359240        5.10912820352388        3.12286980079152
H            5.23462928491566        3.96798266617100        1.84549419613891
H            9.26189782211817       -0.00589544056849       -1.21142386292437
H            9.18718152082860       -0.19907081108841        0.54694216077633
H           11.46928857849439        1.16879725648217       -0.98346872206937
H           11.56365478910660       -0.44335925976569       -0.27095680211164
H           11.39679041263911        0.98004540326777        0.75940099858921
H            7.29031236063279       -0.39453127345571       -0.40599059714927
H            3.56241681378965       -0.45534235335631       -0.53451673533240
H            2.68581113170615       -2.01437353657822       -2.24045152484476
H            0.97865035477108       -3.77451060442534       -2.13326717303030
H            1.33831303497356       -5.74508291196893       -0.70656161790780
H            3.39445656051404       -5.94803766450289        0.60878490736303
H            5.24632729621989       -4.82368690987058        1.68682914845625
H            7.42689897907942       -4.10226999163535        1.27159542492608
H            9.09279134435936       -4.07719798122013       -0.48495455482997
H           10.02410075095356       -2.98107596393294       -2.46839855449728
H            8.64023406786118       -1.42880509097788       -3.78059594797567
H            6.33961117571164       -0.94525322444418       -3.07204633529157
