55
 energy: -11.486792580219 gnorm: 0.000383079670 xtb: 6.5.0 (97a52f5)
C            0.55974217664889       -0.95223586435686        1.14836045213106
C            1.99886521505131       -1.39514031638096        1.30953378961047
O            2.89939274267092       -0.29241694238550        1.23493579756535
C            4.25540545991132       -0.59512047369998        1.35027043193568
C            4.71588254820917       -1.88909897094515        1.56811051754712
C            6.07948813562323       -2.15453784345884        1.67376731178969
C            6.99626199077179       -1.08884711179663        1.55035029693980
C            6.55898666261368        0.21034483092142        1.33309317016851
C            5.20183180611931        0.48409828103879        1.23522385357678
C            4.80113875459483        1.85219965419239        1.02517178212255
C            3.53425953394720        2.30377355122683        0.96112704124442
C            3.07228420315815        3.65936019392817        0.77584767958632
C            3.90301341790170        4.74417652951496        0.57956783567037
C            5.28565466841387        4.66220521644960        0.50603963301304
N            6.44654924314924        4.58838287637382        0.44699564175085
C            3.39498624185153        6.03274551972655        0.47120280746160
N            2.98143179868316        7.11841538590538        0.38611723768978
C            1.60023756830787        3.84683015785315        0.81646654689656
C            0.91949548651036        4.46443555448093       -0.23251341724718
C           -0.44898061365379        4.60908573884724       -0.19729559186209
C           -1.16798932033244        4.13652079000261        0.88202541116683
C           -0.51324896503587        3.51659804515384        1.92705759782828
C            0.85504975167699        3.36991831704715        1.89528503721391
C            8.32244213240514       -1.63335400022603        1.69042149172057
C            9.58830875878434       -1.04806893890879        1.65221376502754
C           10.69024093365401       -1.85112032198107        1.82160159465555
C           10.55160376811108       -3.22596565086442        2.02669016037196
C            9.31179898372581       -3.81560737467890        2.06560565028779
C            8.18069170610354       -3.01512799621706        1.89720763575068
N            6.81189552038411       -3.33660368647361        1.89156918291390
C            6.36064041801523       -4.73005433648700        2.09675809222497
C            4.87122013034799       -4.93570492941031        2.26069628892012
H           -0.13808886762097       -1.78934596610738        1.20610995185388
H            0.41431145189974       -0.45779207765899        0.18764473981901
H            0.28942671494814       -0.23418437155186        1.92292471499553
H            2.27680182563259       -2.10778029433793        0.52326724231061
H            2.14766884523508       -1.88434472081478        2.27990008574499
H            4.01587904683831       -2.69199534692943        1.65439229539436
H            7.27843505730567        1.00335642713244        1.24694553502717
H            5.60333325359884        2.55791148047196        0.92480691054724
H            2.75091702672409        1.57691852074942        1.06535008377020
H            1.48151107269973        4.82630335523304       -1.07604629830070
H           -0.95970100826411        5.09218992086157       -1.01419658297118
H           -2.23924234348596        4.25112795643187        0.90868349084307
H           -1.07425045617751        3.14777913089897        2.77016105419906
H            1.36717024855927        2.89104110737434        2.71202977267726
H            9.68605730115488        0.01101564817565        1.49218440377104
H           11.67543649539389       -1.41553383268348        1.79578361523037
H           11.43270891868195       -3.83271702607903        2.15585204459627
H            9.20314368409204       -4.87402255833837        2.22044456893423
H            6.88636659695403       -5.10346479948227        2.98232915347101
H            6.73669798519032       -5.31953737694741        1.25379304612691
H            4.47629345649604       -4.31747063139036        3.06780453412850
H            4.63007094568418       -5.97365019009701        2.49977550547950
H            4.33489189014549       -4.68935023928581        1.34388540671498
