34
 energy: -6.989317311127 gnorm: 0.000531079573 xtb: 6.5.0 (97a52f5)
C            1.06350349265798        0.57874528329692       -0.54955979914997
C            2.36497314053009       -0.00479341191730       -0.14294128041608
C            2.87052090714262        0.08455720868241        1.10690653116780
C            2.24042958495838        0.71717998954430        2.26569021003057
C            3.01476953776713        1.46513261916265        3.15311667325980
C            2.44770419215957        2.06961748753173        4.25271127070434
C            1.09104449916881        1.93918412602437        4.51554778292362
C            0.46701617235706        2.60228025902334        5.69445910848602
C            0.31861817227527        1.18340141640385        3.64565337325939
C            0.88030546323325        0.57900746821781        2.54309816956698
C            3.11908134018060       -0.67145686053495       -1.15833851671047
N            4.28369634125202       -1.27929920668026       -1.05879393246863
C            4.69227824900351       -1.80579867880206       -2.27683062379641
C            5.89260035778990       -2.51948573858893       -2.49985743666937
C            6.18104154067081       -2.98783532352307       -3.75272465243104
C            5.30753191665381       -2.77471389540173       -4.83083168504486
C            4.13651134386491       -2.09087407041557       -4.65777708427703
C            3.83576531010275       -1.61468423004852       -3.38898059875143
S            2.56849084689950       -0.76475886010561       -2.73460590735404
H            0.86452141088178        1.51468691981376       -0.02644664373263
H            0.24534900747192       -0.11452961179396       -0.35359040522447
H            1.06610808317033        0.78624338214805       -1.62082923075442
H            3.85693170338958       -0.31667666596294        1.26053435674167
H            4.06783311034576        1.57655333115519        2.95932465449395
H            3.05825791092551        2.65392863288493        4.91961076464555
H            1.22086037513101        3.03433225049450        6.35345695261815
H           -0.11523525161796        1.88901447201908        6.27909989976012
H           -0.20052259249326        3.40475727028571        5.37844010538360
H           -0.73334160619235        1.07007963586823        3.84571058889131
H            0.27196892124482       -0.03187212900343        1.90016476639168
H            6.56297470037009       -2.68422031073313       -1.67547328829055
H            7.09643208093042       -3.53173940014668       -3.91782243234713
H            5.56465264200622       -3.15521270122001       -5.80570811885224
H            3.45237709576860       -1.91585065767844       -5.46890357205502
