79
 energy: -15.298823719412 gnorm: 0.000251132187 xtb: 6.5.0 (97a52f5)
C            5.23121866017877        0.71241946080569       -4.62929345706435
C            6.24500336756194        0.32242968244748       -3.57391609795509
O            5.91009918245710       -0.91313952929793       -2.94807227798521
C            6.72948734420540       -1.27315622609466       -1.86794780092651
C            6.34598953276448       -2.38567064105780       -1.11297620714488
C            7.07155399820112       -2.78853437837895       -0.02070509337755
C            8.22049478614196       -2.09852106867365        0.36171922184469
N            8.91580049741157       -2.44788499700760        1.57739332460827
C            9.74648381005158       -3.66905045963531        1.61228950385404
C           10.12606953510564       -4.18895128781758        0.24065147970608
C            8.64727342174273       -1.73294722229291        2.76883980362117
C            9.11199507798752       -2.15745581810251        4.02307736329751
C            8.80046140749062       -1.46965294388076        5.17272273905142
C            7.99798893296974       -0.33539933344348        5.09012419188351
C            7.51758145502986        0.09601555852472        3.84795657422782
C            7.85300476816370       -0.58302287467711        2.70344153912801
C            6.67571437896948        1.36122081185853        4.03392853449675
C            7.28270611378642        2.55307142520496        3.24932072824330
C            8.71469481377737        2.87410416977858        3.64628457706382
C            5.18630066530758        1.12609726259369        3.65692389945093
C            4.92141702023310        0.74317289241864        2.20953983469304
C            6.77085101209972        1.59508100250741        5.54515897425828
C            6.20159677989727        2.57689309985495        6.32053973198241
C            6.37502740201726        2.56135916072194        7.71102235641338
C            5.71639484314710        3.57593766563344        8.50605090813280
C            5.62900232925847        3.59224968043103        9.85178415795607
C            4.90815057616940        4.57550057651448       10.59718265210477
C            4.25537477374746        5.68138551803645       10.10484231485386
C            3.60187271407547        6.44114044852014       11.08745307045663
C            3.73180819387179        5.94560049344777       12.36336027214875
C            3.17274494073734        6.46150703125732       13.56928996163790
C            2.37662533039370        7.55163009580208       13.70281168315442
C            1.99314529065374        8.35420789426926       12.63320152590179
N            1.65572299333010        9.04400659575993       11.76057928891658
C            1.88263714363452        7.90519352343757       15.05262140950147
O            2.22613917316110        7.22510681995462       16.00632110474231
O            1.05410763386607        8.98818558937021       15.16246311741783
S            4.72030850195544        4.50979810870592       12.32930226944709
C            7.15686031251671        1.54221722670438        8.28023291901311
C            7.73428902620913        0.56152674659280        7.50676391867151
C            7.53476875834885        0.57946272350035        6.13044474752323
C            8.62113082750191       -1.00092905526294       -0.39904399972449
C            7.89303738607967       -0.59565922291686       -1.48997006449888
H            5.48235267711414        1.65805096780401       -5.11318619579487
H            4.23807737830232        0.81208281052587       -4.19024137718755
H            5.16485117235337       -0.05450499208349       -5.40146407138506
H            6.30516380256638        1.08930191031998       -2.79150579503841
H            7.24440876685207        0.21408723273701       -4.01301371441078
H            5.45305136711471       -2.91167108348299       -1.40060120882983
H            6.75089110353096       -3.62824264423281        0.57062891909270
H            9.19880260634388       -4.43029403419337        2.17741742881804
H           10.65022920057446       -3.44093615649021        2.18646136603742
H            9.24158782858858       -4.46022993614301       -0.33685919626503
H           10.76472140032530       -5.07260101207988        0.29881317959226
H           10.66177942323791       -3.42851386021347       -0.32901213297596
H            9.71479834999059       -3.04488997187910        4.08939793190371
H            9.16425329481214       -1.79684529986192        6.13058679505050
H            7.51759013524389       -0.22290660500222        1.75043672739194
H            6.64411668989127        3.43057425762873        3.39854392732831
H            7.23685900001035        2.33062842671581        2.17835275720600
H            8.78271625613085        3.12998747410527        4.70462564988233
H            9.11919462884986        3.71396420614784        3.07793553283560
H            9.37060488070886        2.01816762847614        3.48055522538411
H            4.62673660040602        2.03399055065197        3.90838745527419
H            4.79084939917637        0.35018577597039        4.32237259048608
H            5.31771506181262        1.48520749594075        1.51599312343124
H            3.85248978215220        0.65148226067359        2.00579991442500
H            5.37355860558174       -0.21692179837328        1.96069874422044
H            5.60590096774815        3.34379399548860        5.86035445267365
H            5.21986201948980        4.35687143491861        7.95955751073738
H            6.08627133042471        2.80244444157368       10.41918274161327
H            4.23480522768487        5.93953412584619        9.05792185608962
H            3.03577902717503        7.32816680599195       10.85850309241097
H            3.40180269946678        5.91611389746698       14.46868927126937
H            0.89623340773205        9.39497247117488       14.28882890548561
H            7.31195481701915        1.52851040392159        9.34390827702079
H            8.32789102842731       -0.21814996952175        7.95019137584723
H            9.50635554919922       -0.46527681186084       -0.10348273239472
H            8.22372980174238        0.25571939496209       -2.05599302760245
