39
 energy: -8.077529139476 gnorm: 0.000673044083 xtb: 6.5.0 (97a52f5)
C            1.27637465627637       -0.22647084871407        0.87966084211419
C            2.62121396991430       -0.16510917728524        0.18674509292442
O            3.16798717026226        1.14847122535481        0.22277082305128
C            4.38399332328547        1.30793912969038       -0.44015773722818
C            4.92839257355660        2.60333091747535       -0.47746361543107
C            6.10955230148559        2.85287721866440       -1.11299818388487
C            6.82039221809238        1.83023848564460       -1.74770163402312
C            8.06115331305070        2.05137049046333       -2.43613756558449
C            8.67418560189600        3.36708359867739       -2.52624084219190
N            9.78729475247910        3.60900284327324       -3.19330505357053
C           10.00666095192106        4.91946346855023       -3.02712799161471
C           11.13503045817622        5.64668125562076       -3.59708100607877
C           12.07670533686409        4.99353969846533       -4.38599940167173
C           13.13615455906913        5.68446565201658       -4.93118469237938
C           13.27217078106761        7.04095722644414       -4.69381540501509
C           12.34696425614673        7.69743537687030       -3.91172960656924
Br          12.51835923242533        9.54148757231151       -3.57619735921501
C           11.28762890369957        7.01331297489621       -3.36706700335354
N            9.05232502550246        5.48652540783870       -2.27499349436916
O            8.20016929378987        4.52043908768328       -1.94911946208147
C            8.67418180213135        0.99446522728892       -3.02090008749510
C            8.12894468541442       -0.33522795832895       -2.97664816933966
O            8.74693440801311       -1.23727708384015       -3.52971340340126
O            6.93688313360572       -0.55179059271128       -2.32001368983953
C            6.29612652957207        0.52080877896328       -1.71795801517330
C            5.08917439767206        0.28763753289198       -1.06380694341660
H            0.84263710679527       -1.22778869662710        0.85203294108319
H            0.57256544211999        0.46097020750397        0.40927126639835
H            1.36901895749544        0.07413987885641        1.92355929461015
H            2.53084410945696       -0.45909077514367       -0.86680196897801
H            3.34146624265009       -0.83881290686691        0.66814929873533
H            4.38462105054470        3.39510701284191        0.00683911991449
H            6.50885042202886        3.85098337419274       -1.13391227503063
H           11.96339545476531        3.93796933577321       -4.56249693876225
H           13.85887363050543        5.16961535275556       -5.54277486852004
H           14.09583921409768        7.59532407929410       -5.11375831141373
H           10.57082910877924        7.53715442037927       -2.75769963632854
H            9.60250718070804        1.14005795029151       -3.53992482256337
H            4.71559844468466       -0.71770674145479       -1.06089949429143
