42
 energy: -8.588313956258 gnorm: 0.000644455384 xtb: 6.5.0 (97a52f5)
C            1.28599105460458       -1.00463062618861        0.14602379732141
C            2.56100776388795       -0.21388865734290       -0.05789799792916
O            3.22722746544333        0.03185327063790        1.17597868334211
C            4.40583637558702        0.77152510505175        1.08059010303391
C            5.07798212186638        1.06376006536398        2.27987745215531
C            6.23267754618770        1.79023343712835        2.28103115467814
C            6.78977054317785        2.26755201593372        1.09133009265422
C            7.99667274331439        3.04500356883681        1.05091104864802
C            8.73011387787781        3.40169304868196        2.25494963320950
N            9.82898675422876        4.13333703780724        2.25094781238851
C           10.17946372954906        4.22924354161012        3.54046969109207
C           11.34786511785427        4.95576366404795        4.02538223910312
C           12.17033202714772        5.63858078020709        3.13771404691368
C           13.27530525814459        6.31879953860390        3.59453634738859
C           13.57274696931351        6.32903376742133        4.94245934057735
C           12.76431275046952        5.66403388950729        5.85326348479792
C           13.10428735710252        5.65806250321139        7.30233161786809
C           11.65971865043000        4.97710436892246        5.38065537649675
N            9.32185074687864        3.57174777940822        4.33499116100755
O            8.39704440466055        3.04241310337897        3.53980905585234
C            8.45775957422859        3.46134163475914       -0.15275932868871
C            7.78506813001047        3.15381040868147       -1.38579872081282
O            8.26948350415882        3.56634799779344       -2.43361578495815
O            6.62369731210188        2.41116029891359       -1.35136622687810
C            6.13652053133794        1.98033224626737       -0.12569476897537
C            4.95761077950132        1.23915146482276       -0.10443934496356
H            0.76481882680891       -1.19772513672291       -0.79331572725141
H            0.60477888830842       -0.46837320321845        0.80709396784597
H            1.50187393751955       -1.96386265129604        0.61699619826124
H            2.34810450659633        0.75803535625398       -0.52045994242000
H            3.25668210153090       -0.75525223032573       -0.71111448696534
H            4.65375435405007        0.70180108908066        3.19963123845197
H            6.72953102298238        2.00745806237051        3.20913559908168
H           11.92892662979995        5.62450637018626        2.08911039766716
H           13.91023456219628        6.84316022047074        2.89951165116900
H           14.44157571696228        6.85554244790090        5.29849679041414
H           13.45587372707136        6.63846918021759        7.62515027241502
H           13.88896367363293        4.93039708924576        7.51115145474908
H           12.23645436155489        5.40189670507536        7.91060927883628
H           11.02760408753909        4.44566904290884        6.06867079448045
H            9.35806504260030        4.04365459124165       -0.20292243162172
H            4.48128547178044        1.04177781313936       -1.04480502042765
