39
 energy: -8.131171888551 gnorm: 0.000437325999 xtb: 6.5.0 (97a52f5)
C            1.24656747093636       -0.64693810762184        0.53468765955054
C            2.61075008083103       -0.25342302281629        0.00822129710948
O            3.14421853882341        0.85867979346156        0.71844392750979
C            4.37281751516631        1.32840236783463        0.25582442660120
C            4.89924245334335        2.47048704177829        0.88360712225732
C            6.08982516866283        3.00589675763750        0.48758504892972
C            6.82922949462640        2.43772139674378       -0.55367232132691
C            8.07905379187735        2.97826874937010       -1.00998768635991
C            8.66782106087173        4.17109100648530       -0.42179710951781
N            9.78074853637265        4.72944933877047       -0.86040209277863
C            9.96871162024730        5.78837782178199       -0.06181982571195
C           11.08318187622625        6.72273238655722       -0.18027505111727
C           11.21492316324034        7.79033474000978        0.70180753417134
C           12.26712271753241        8.67004600342380        0.58312504940438
C           13.20251224231398        8.49905968008071       -0.41765003779909
C           13.08394515422104        7.44477526888976       -1.30074079703106
C           12.03322460652232        6.56312367882682       -1.18325403011549
N            8.99847000821364        5.88943513243682        0.85846242411824
O            8.16557785612653        4.87587099546530        0.64610211008690
C            8.72003072732305        2.35579940747794       -2.02806772944733
C            8.19732100983825        1.17624762898734       -2.66266950097832
O            8.84283101078700        0.66865411496270       -3.57250165871595
O            6.99522205816292        0.65696562700793       -2.23179503553346
C            6.32449145941626        1.28596152345859       -1.19327078793443
C            5.10706804895201        0.75561229164466       -0.77379075848939
H            0.82571685055554       -1.49777310310574       -0.00409193417658
H            0.54902163457812        0.18696522245473        0.44973038127564
H            1.30522487394700       -0.90968185029962        1.59136709314691
H            2.55433645661609        0.02425534527545       -1.05207105469490
H            3.32276175456853       -1.08279931000602        0.10546515309271
H            4.33396949740938        2.91458384521019        1.68375311953367
H            6.47429307599800        3.88218540409957        0.97764108748408
H           10.48066690410099        7.91819123659413        1.47829509042913
H           12.36058093650313        9.49309998491852        1.27253622319255
H           14.02535123141353        9.18902372779156       -0.51044206641504
H           13.81339861040321        7.31211674901186       -2.08307985091923
H           11.93235383399467        5.73785577252667       -1.86647134914482
H            9.65466867962972        2.74618419729256       -2.38338996663150
H            4.75028798963559       -0.12103884441912       -1.27816410306255
