39
 energy: -5.249631018120 gnorm: 0.002419472055 xtb: 6.5.0 (97a52f5)
C            0.41531174087290       -1.47110634520475       -0.14126677243855
C            1.83414913837559       -1.36881889539736       -0.43452127752184
O            2.52413338976655       -2.58258701514620       -0.36656369736111
C            3.73455849323257       -2.45418426342217       -0.93374267706539
C            4.70121934032339       -3.36699007428979       -1.06056663541749
C            5.86430930391626       -3.18814657922752       -1.63053992541672
C            6.30042549948486       -2.07602950259056       -2.21191447018632
C            7.55943977535733       -1.80954770531303       -2.82145970373092
C            8.56786053371960       -2.82899261639859       -2.75599025554700
N            8.48960157302627       -3.99359932460219       -2.23279943398957
C            9.62273628427499       -4.60499010076257       -2.38061947112915
C            9.94372774794818       -5.90811242315666       -1.90984015307495
C           11.16908593385987       -6.46039920434664       -2.14566803546294
C           11.45218621596676       -7.67119086013380       -1.70878972240178
C           10.55437906543075       -8.37079034197885       -1.03698946266518
C            9.35787300325849       -7.86569201235091       -0.79190441702315
C            9.04206858621959       -6.65753180812612       -1.21379326492099
Cl           6.01665402712424      -13.23600816005198        2.44424228819500
N           10.83207387923858       -2.15312310842943       -3.86024963033821
O            7.80084501247741       -0.71109212044029       -3.39440324035656
C           11.35356982772239       -0.79169434859547        4.30084776055613
C           10.51918287509632       -0.82973908949486        3.41833485670218
O           11.61351984847695        1.98815367868526        6.42547901071520
O            9.51763348452398        1.82875432463865        4.11289539632456
C            8.43309018039953        2.38239799356412        4.26381029799505
C            9.31871937184624       -1.52578721116413        2.04085280159434
H           -0.11486190475673       -0.54793112594475       -0.26733704240954
H            0.21713010894539       -1.89944443131942        0.82060238009137
H           -0.86772373548226        0.03844948933210       -6.79541496277735
H            2.34891082603727       -0.63688770331546        0.17388323789677
H            3.43072324155162        5.77897472983424       -3.02231984974990
H           -2.01967668631123       -7.34576233689202       -4.66817824736252
H            3.47356341320807       -3.02848670395005       -5.91195131133087
H           12.33108980581090       -1.49301550789407       -4.77213834589971
H           18.06831248474770       -7.06338480626448       -5.92758896965203
H           16.39629362326503      -13.70511963749268       -1.73790516893148
H            7.39482354546153      -14.52243444983584        3.52638754167034
H           13.33486700765599       -2.36320174679786       -0.11931444154497
H            8.14632414032897        2.93453134418050        5.11306501026022
