39
 energy: -5.273359255167 gnorm: 0.001989745630 xtb: 6.5.0 (97a52f5)
C            0.54170250098239        0.76816029037202        1.52743024676634
C            1.90367660949039        0.27027885786578        1.60946728454709
O            2.72457400943933        0.96883313975906        2.49918659260521
C            3.86042010752092        0.28095448205369        2.70265691779435
C            4.92140568947020        0.59518832527884        3.44951068817375
C            6.01859987397671       -0.10526350943337        3.58056504061342
C            6.28835385984189       -1.27955614941376        3.02144619575362
C            7.47673674374422       -2.05989737511366        3.10656588110288
C            8.59620678194240       -1.50557018014712        3.81498567504232
N            8.67390367903860       -0.37198122854838        4.40280849872720
C            9.85431557697584       -0.22267038327595        4.92057836444927
C           10.29768724882081        0.90782225272382        5.66013179885670
C           11.55999808002952        0.96358909874264        6.17534276581384
C           11.95589653692841        2.01524470643034        6.86385298937942
C           11.13702157588910        3.03202676731582        7.06803466279311
C            9.90806803091603        3.01057859637375        6.58251908875403
C            9.48018090356238        1.97449756326951        5.88927674396744
F            5.04301351398913        6.99545712362252       11.34291011187032
N           12.26666366956164       -4.59060136895277        3.97239418819752
O            7.56105909762871       -3.19897940495442        2.56777823130721
C           11.07585817557195        4.72817299839093       -0.42856874085794
C           11.04601892566937        3.53374513464660       -0.20236200834490
O           10.64604918646898        6.03322732773829       -3.63237227338063
O           10.09434489620025        3.02156095910592       -3.01344788836951
C            9.26259764491438        2.41239481626839       -3.67997432347145
C            9.53318980664056        2.77338045465713        0.86139259374093
H           -0.09765523102643        0.16406221462025        0.91283252076746
H            0.49118279886298        1.79857660431196        1.23621604575662
H           -0.79863848526875       -5.26252253775647        3.67581457047284
H            2.39912887859705        0.20797105435416        0.64903445641985
H            3.57405290563704       -5.01233710053622       -3.71508500548476
H            2.20143306773935        2.83678162160932        3.47822743218969
H            2.39622864474566       -4.67543432108832       10.17444020457420
H           16.15982196253730       -3.68186422733671        1.90538624135246
H           18.60483854574962       -1.73398360492608        8.91104799563337
H           16.89868380785875        5.10212566557175       12.36963528897376
H            6.54175082225803        8.29149019837448       12.63546550474892
H           12.16997646151996        2.43207097589152       -0.17288284137935
H            8.66906310379503        2.81841015988688       -4.44950174117772
