37
 energy: -7.301093654357 gnorm: 0.000844509555 xtb: 6.5.0 (97a52f5)
C            0.95878768101114       -0.09009069622415        0.00947833988854
C            2.41575473631487        0.32065397804674       -0.02665492759901
O            2.95993446988950        0.45795253797386        1.28263119007041
C            4.31878858360604        0.76579010743377        1.33092764967393
C            4.91378247725419        0.85614353526111        2.60550232017798
C            6.24022057294100        1.13787046236133        2.74792215453907
C            7.05281032281991        1.34615593350169        1.62299565283970
C            8.43278262434651        1.62554332088618        1.72857095610606
C            9.20698541362167        1.81606508571077        0.63021994692086
C           10.64653716211516        2.09712410509610        0.76920390357004
C           11.31275799911454        2.92729339623673       -0.12940979803252
C           12.65349277766038        3.20233107012361        0.01359988507670
C           13.38198565450913        2.65998069968422        1.06206393828914
C           14.83905598317975        2.93156736008891        1.20473735052232
C           12.73014523795108        1.82085954110418        1.95331406966110
C           11.38844840792142        1.54592085950193        1.81406984319167
C            8.58456540727532        1.73488551127680       -0.70069733206863
O            9.27741017359569        1.89519144714179       -1.69656310774275
O            7.23122478219251        1.47306374103581       -0.80840761335519
C            6.47916723055124        1.27140636453275        0.33794360151539
C            5.12193718758710        0.98470303199721        0.21874145538306
H            0.53736941227931       -0.20515132631194       -0.99081547361719
H            0.36281790804417        0.64960030358352        0.54397383709841
H            0.84000682033137       -1.03718614994067        0.53616155113067
H            2.53889726602032        1.28079505480747       -0.54301948587142
H            3.01628991931174       -0.42643269684603       -0.55997878919426
H            4.29125472571929        0.69188304129970        3.46690952465459
H            6.67998382561668        1.19933160270689        3.72851787897894
H            8.86790244491239        1.70382331900084        2.70788142292398
H           10.76024363349453        3.34479847191358       -0.95313462319935
H           13.15075192138868        3.84124957709818       -0.69584645956639
H           15.12170300549844        3.85061214228441        0.69073789780505
H           15.42699240450132        2.11565010325161        0.78341329698911
H           15.11570705304039        3.04048000847972        2.25380203071292
H           13.28984927631690        1.37909335841579        2.75987590777180
H           10.90629244641339        0.87836853696209        2.50667669845033
H            4.70985305165643        0.93879326052349       -0.77013469369671
