57
 energy: -11.359669578018 gnorm: 0.000728930724 xtb: 6.5.0 (97a52f5)
C            0.86982484630408        0.93854120472622       -1.63762262198189
C            1.25055507817210        1.04994168769608       -0.17573389008701
O            2.50422084121660        0.44447453168684        0.12887006731243
C            3.62152513237967        0.97047545875570       -0.54686430016320
C            4.64916605754845        0.09569103223597       -0.86629594049817
C            5.77851412379484        0.52398131711709       -1.53803076550864
C            5.91230903564578        1.84304570237551       -1.88625909704349
C            4.92484556499384        2.77764986094597       -1.56054370666312
C            5.09424545001223        4.20436337508529       -1.91766413681883
N            4.10967390679273        4.76334925730873       -2.62451200735241
C            4.26471991791545        6.01156752395187       -3.04505574132388
C            5.38575310328127        6.81791443821978       -2.76886176298275
C            6.47727139250456        6.17939753159050       -2.14254035031119
C            6.28390925771073        4.89765330415165       -1.61364481721745
C            7.33340814228422        4.30917679187975       -0.74850753349579
C            7.03466294299011        3.49326731445770        0.34193252890228
C            8.03374752258488        2.97351753525722        1.13345060578246
C            9.35300358551743        3.27525837391754        0.86634538337778
C            9.66732638081523        4.11465489027193       -0.18300991164643
C            8.67108775805423        4.64347426433723       -0.98573580008133
C            8.96853921246351        5.62848143678358       -2.07349362166147
C            7.88712278208548        6.72902733363017       -2.13234791690457
C            5.31682798993601        8.27503851321427       -3.10172154920539
C            6.35422811059608        9.17537060179101       -2.83671900336030
C            6.27580789028392       10.50931319200898       -3.17206884867811
C            5.13712116707606       11.00791533587724       -3.76002387286786
C            4.06916527793401       10.16666948501927       -3.97439531463576
C            4.13370227477039        8.82234202753520       -3.63928200260537
C            2.88841138500173        7.99931650046330       -3.78564189406623
C            3.18455226524662        6.51202927932204       -3.96191628748678
C            3.75691406685717        2.34346408628574       -0.89943535406192
O            2.77039968836310        3.24502377315997       -0.57787062536512
H           -0.10843521619325        1.37899642926455       -1.84186973878187
H            0.84102155632472       -0.10553795457897       -1.95179276639016
H            1.60089556583932        1.44446923331765       -2.26890322119779
H            0.50384738182556        0.55638113072157        0.45986331723212
H            1.29212991445670        2.09245466380156        0.16026741567944
H            4.54158996469218       -0.93775562853095       -0.58838889348993
H            6.55595312798558       -0.17995815077797       -1.78569315300737
H            6.79153074053850        2.17862907703422       -2.40862892726527
H            6.00535437955045        3.27582717138317        0.56695017246454
H            7.78471951641987        2.33231437021738        1.96325703153078
H           10.13564203180851        2.86821256036607        1.48549447993040
H           10.69363181932319        4.37407739704524       -0.37876108159314
H            9.01934793739185        5.09815778236845       -3.03164524012668
H            9.96238172827330        6.06597979081296       -1.91627632822085
H            8.04726726198430        7.32399208132615       -3.03933439300210
H            8.00767527144518        7.38996833388034       -1.26669255687132
H            7.22662602604327        8.86010290779924       -2.30293184642710
H            7.10329283509285       11.16774755241614       -2.96151946292659
H            5.07087699513262       12.05114156726381       -4.02297013625529
H            3.15642616836231       10.55819369468736       -4.39097368620498
H            2.30212054438136        8.37565106012444       -4.63397930987116
H            2.26033657147780        8.15290909649818       -2.89972992086295
H            3.48748061088438        6.31010793194491       -4.99602112034351
H            2.28035306592666        5.91355510392511       -3.79665099890426
H            2.98467204985832        4.09968583662396       -1.00985954639347
