59
 energy: -11.623672019550 gnorm: 0.000616607274 xtb: 6.5.0 (97a52f5)
C            2.36270988754185        0.31212355510089       -0.29877171522104
C            3.84598259874898        0.53081392537482       -0.09567603165388
O            4.59127996177222       -0.67194964144379       -0.22730641883644
C            5.91722114921645       -0.60451007615848        0.22737019709395
C            6.55459891079437       -1.79870565989737        0.52622211750411
C            7.84244489858238       -1.82075913098177        1.02739811249045
C            8.53393439914381       -0.64980075438160        1.20432855064526
C            7.96531392125683        0.57859800103802        0.85632079496139
C            6.63407491272778        0.61087715973500        0.41093042247193
O            6.05109179030420        1.82735727517577        0.16742579017723
B            6.39516734585860        2.88182893687189        1.14628307798539
F            5.80218597332363        2.58813329504197        2.35919282040651
F            5.95956316050865        4.10172145964431        0.66019760030457
N            7.92209576750096        2.93861844434882        1.37171526246598
C            8.45534513739984        4.05414156149756        1.91209056086321
C            9.84129590659518        4.15723156100583        2.08462032874771
C           10.65000970873962        3.06118364960690        1.72944621268753
C           10.08641368618929        1.97260501532367        1.03601227956961
C            8.67060688663086        1.84996029555139        1.02798657922817
C           10.99318886820674        1.07019693156358        0.28101853127544
C           10.50419325062490        0.19021843889488       -0.68579046328378
C           11.33949714480482       -0.63323951136241       -1.40456091026115
C           12.69999690662939       -0.57489297771076       -1.20261349429445
C           13.21621302106855        0.33781559562618       -0.30819831811167
C           12.38874229983185        1.17829336340406        0.42013523338948
C           13.01473132160029        2.25879759241596        1.25862032210486
C           12.04886790031999        2.88700672335324        2.27162748676001
C           10.38252961483320        5.42340842333637        2.63375503569866
C           11.61257610642669        5.94398497385875        2.23340720953639
C           12.08352786866140        7.12813750811987        2.75455877976250
C           11.32387928605505        7.83461982285952        3.66288748051966
C           10.07479533165822        7.37156282570596        4.02109691854353
C            9.58618212407991        6.18449084393779        3.50225874985810
C            8.17326542277970        5.74431064529860        3.75424689237997
C            7.56759301502453        5.11717187209943        2.48357462770061
H            1.79246895538198        1.23701721074629       -0.19544126948517
H            1.97719278549162       -0.40486273507583        0.42662522694240
H            2.16617902781122       -0.09674947863788       -1.29024690244138
H            4.05514088682705        0.94136249200669        0.90105306547474
H            4.24795591209162        1.24235424761250       -0.82833988150048
H            6.00902234164327       -2.71488189927684        0.38557009920085
H            8.30302646810540       -2.76099665376994        1.28172275622504
H            9.52946074773639       -0.66835455542914        1.61235793843327
H            9.44993418282018        0.17249695018402       -0.89440422430813
H           10.93024617228114       -1.31801591494726       -2.12945636221477
H           13.35938594717012       -1.21844899991176       -1.76154831360635
H           14.28276096764329        0.42320337961368       -0.18693176892225
H           13.40203789160905        3.03567773555006        0.58862756082531
H           13.89280478206164        1.84787466213596        1.77306630659243
H           12.44478392676853        3.82723163412468        2.66531828622676
H           11.97983183201680        2.23328872613580        3.15003200446780
H           12.17715017260594        5.43684169958773        1.47037195957086
H           13.04260442625882        7.50901556932282        2.44361527663584
H           11.69310923721328        8.76135944966368        4.07048253881072
H            9.46002790657253        7.94416245658755        4.69422259522041
H            7.57136994860590        6.59555048650231        4.09451683012207
H            8.16477795590684        5.01644297119762        4.57342303023415
H            7.39991840521542        5.88691705658197        1.72240817472713
H            6.58392363472414        4.68300156563952        2.69733444929622
