15
 energy: -2.043717162821 gnorm: 0.000264804778 xtb: 6.5.0 (97a52f5)
C            1.06587437507171        0.07100707696971       -0.04081723596914
C            2.56201028186049       -0.06148244550154       -0.23384512626923
S            2.98542990642418       -1.04751117784747       -1.65871788792889
C            4.76024307161861       -0.94727341996982       -1.51116547602440
C            5.47970892011219       -1.70681918039670       -2.60603864674141
H            0.81475879267004        0.67654636894905        0.83391142365390
H            0.59958773799690       -0.90814895540636        0.08821820757609
H            0.59841649448113        0.53568874454737       -0.91166717012110
H            3.02857610153250       -0.51890300236871        0.64439460173028
H            3.02751950533818        0.92199485705046       -0.35324090763382
H            5.03942773195320       -1.32976282663032       -0.52425481249493
H            5.04089091745628        0.11069711589691       -1.52258244503494
H            5.20899410594109       -2.76481145025913       -2.59127308298729
H            6.56645414599070       -1.64033287183470       -2.50872296581057
H            5.21055791155275       -1.32146883319881       -3.59187847594455
