16
 energy: -2.110427811527 gnorm: 0.000361638633 xtb: 6.5.0 (97a52f5)
C            1.06628513743035       -0.05354646009693       -0.06588627181493
C            2.57606356447087        0.00704745253054        0.01936912588016
S            3.15097246170163        0.99421722777242        1.39334472616701
S            5.26987991543451        0.88167026256248        1.23293733386879
C            5.84468728941597        1.86867920085138        2.60706985320718
C            7.35445948577268        1.92934015881076        2.69240966206845
H            0.72475764272384       -0.65922242195284       -0.90912728279436
H            0.64050449573000        0.94549994132407       -0.18088818008185
H            0.63990265955439       -0.48107273276457        0.84404241851708
H            3.00594944222282        0.42926911953656       -0.89387086475171
H            3.00566697949475       -0.99330047877815        0.12844323387820
H            5.41478565378433        1.44631626900694        3.52023259571619
H            5.41504511736496        2.86902198644987        2.49809533350187
H            7.78027181055135        0.93030008197472        2.80734127231521
H            7.69592743403596        2.53497821598783        3.53570186472302
H            7.78085091031157        2.35693217678490        1.78251517959968
