50
 energy: -9.650322781418 gnorm: 0.000398792277 xtb: 6.5.0 (97a52f5)
C            1.12883224636184       -0.36567547894623        0.83364840264807
C            2.58437751661196       -0.64744798047622        0.59666624911054
B            3.12241816125032       -1.58343312966278       -0.63798049774645
C            2.83242549853975       -0.88023156069949       -2.08935857973440
C            3.32927793161184       -1.71150229420351       -3.24180866231662
C            4.74242670607588       -1.63472698420280       -0.45767211035146
C            5.59620833225314       -0.70599882805937       -0.96958246017976
C            6.92119806476640       -0.60010522859265       -0.51087110721858
C            7.36683699925382       -1.39648392110206        0.49324257554127
C            6.50943727231554       -2.36966913315061        1.06989579483400
C            6.92100801039882       -3.17063591041759        2.13152752599728
C            6.05879427417499       -4.09751915294531        2.71293577686026
C            6.45851487287061       -4.86405655037661        3.84147036679258
C            5.59965986856363       -5.73295544856008        4.43356782593780
C            4.29160744705551       -5.87901218200762        3.94349971053095
C            3.87817221539990       -5.17599589971247        2.85562774374511
C            4.74872824804306       -4.28394419105535        2.17372806263370
C            4.35399930606519       -3.55789897734936        1.01224531786119
C            5.19308536610392       -2.52560639921838        0.54215292820986
C            3.18283698979497       -3.93163660674238        0.21123559771515
C            2.83951184461049       -5.27870711868012        0.11879355640156
C            1.73355702584722       -5.67550393443931       -0.57963650554830
C            0.94995356181778       -4.71992111449416       -1.18270570389175
C            1.29725163495744       -3.38456187378193       -1.13431605600376
C            0.33870075345838       -2.43753583402603       -1.75936762949833
N            2.46386186633784       -3.00867328682488       -0.51602316467226
H            0.97152898891221        0.21935604022346        1.74305511400260
H            0.56119178003204       -1.29144918268477        0.94270229869482
H            0.69282545069438        0.20121273421861        0.00929281799401
H            3.02036248728003       -1.17150307950127        1.45149035948546
H            3.15187601382373        0.27847672266019        0.47068524184248
H            3.33279307469831        0.08907896961181       -2.04536934185918
H            1.77855969867563       -0.62963351704278       -2.19423148154461
H            4.40259761642387       -1.89314472682270       -3.16531455161619
H            3.14320075197670       -1.23273540472356       -4.20592437263359
H            2.84808260258065       -2.69054495226168       -3.25816377610123
H            5.25591075811439       -0.01101581874212       -1.71552227125176
H            7.57561607152078        0.13995466145049       -0.94211979351434
H            8.37203962423271       -1.29810429295285        0.86576961939694
H            7.91109968024922       -3.04718063679594        2.53186583745194
H            7.45645133738696       -4.73983075557882        4.22590186244300
H            5.91420600383455       -6.30585942303900        5.29079536634682
H            3.61120733313782       -6.55089173348366        4.44117453552470
H            2.85863230502620       -5.26470346697480        2.52432795288811
H            3.47484637611586       -6.01825908272733        0.57534964758323
H            1.46925271269332       -6.71891706418803       -0.64221425126642
H            0.05291225215850       -5.01299432650211       -1.70220967202441
H           -0.67853543785427       -2.82945940140287       -1.70771792767574
H            0.56662704231089       -2.27918862004166       -2.81372253741416
H            0.32138346144651       -1.47993462295781       -1.24780563441751
