59
 energy: -10.649392009754 gnorm: 0.000750794166 xtb: 6.5.0 (97a52f5)
C            1.15498455848096        2.22926332135949       -1.15031968794734
C            2.63334868320501        1.87542251568741       -1.18368735647771
C            2.91713610991530        0.42851451050771       -1.61835011210573
C            2.38532340741033       -0.59463751590698       -0.61530165001605
C            4.42007727713592        0.23907692152742       -1.84882741702711
O            4.92387624169482        1.14357811854153       -2.82827356111988
C            6.27579230934801        1.07916943890239       -3.03225773251879
C            6.84241353427700        1.97748138629746       -3.96831875833849
C            8.17982384986085        1.98482082946407       -4.22390240235507
C            9.05193238502490        1.09341849818122       -3.56687434350683
C           10.50102940888266        1.10139859328423       -3.84170653089980
C           11.16395060885382       -0.01904446255720       -4.40591420334586
C           10.67053958579682       -1.26521702970276       -4.88446112476902
C            9.26509643110795       -1.73850034427196       -4.91852496393864
C           11.76095300188912       -1.99000281058363       -5.35552186390311
C           12.92507120111014       -1.22091083966006       -5.20255281985204
C           14.29606826003296       -1.56193976685734       -5.62521759006728
N           12.53547953517336       -0.05664768660118       -4.65661325235357
B           13.49039832232128        1.11940634356005       -4.41787200290316
F           14.47299911929054        0.73652939272879       -3.51248060335662
F           14.04125441688722        1.51669323306942       -5.63048467168756
N           12.68118724027893        2.27999472309740       -3.82601164419470
C           13.23336411304671        3.44736132670408       -3.45430669790861
C           14.65428171791587        3.81922083180653       -3.58407779537524
C           12.19767191112738        4.20900179481832       -2.89219258814767
C           11.01756350308933        3.47275754325670       -2.93117308202370
C            9.71628514453973        3.93640926081097       -2.39094369839125
C           11.31357932080254        2.22918603426522       -3.55706314970751
C            8.49126199545547        0.19333586799062       -2.63765482921732
C            7.15406324876666        0.18230648361219       -2.37664232150219
H            0.99280881913346        3.27659877644653       -0.88721495595445
H            0.61440588863006        1.62584070320417       -0.42018549183783
H            0.68732151796626        2.05928345766806       -2.12134085174614
H            3.08826779959609        2.04393431454635       -0.20042549674018
H            3.16431264761197        2.55363465599211       -1.86423127758301
H            2.41619750672492        0.26894386248712       -2.58739169094413
H            2.83875370593792       -0.44431791626921        0.36434149984358
H            2.61262764600742       -1.61418757084076       -0.92903391208073
H            1.30463365150756       -0.52061252739197       -0.49374628841382
H            4.63407731313497       -0.78267440460655       -2.18056482158594
H            4.95865893241031        0.41307882304773       -0.91188734524700
H            6.18438121589454        2.65990707864477       -4.47581691562799
H            8.59147375522742        2.66786419042435       -4.94657971600855
H            8.58029850754239       -0.92130698087584       -5.14538287582833
H            8.97654961136656       -2.17275708595906       -3.96116282933341
H            9.13048061292434       -2.50273549270774       -5.68464440842264
H           11.71747457353452       -2.97515733972460       -5.78726042589252
H           14.46999537687685       -2.63663069357865       -5.56756720622325
H           15.02468075788198       -1.06310115047965       -4.98590957838296
H           14.47469280761308       -1.23946237411801       -6.65107492398202
H           15.20070058977016        3.04491343867515       -4.12301395486011
H           15.11570202886871        3.93814995517753       -2.60362474029073
H           14.76427472506039        4.75582510400794       -4.13098658772356
H           12.30687865483789        5.19402863553640       -2.47187776430485
H            9.86285884214039        4.69664155611432       -1.62301742325071
H            9.16284522399656        3.11400580794627       -1.93758459885933
H            9.10040268276775        4.37255566391751       -3.17762172155666
H            9.14939827232008       -0.48411642556396       -2.12153249987881
H            6.76327988999329       -0.52048257504402       -1.66421274232898
