71
 energy: -12.500903155361 gnorm: 0.000730443184 xtb: 6.5.0 (97a52f5)
C            2.18610268360523        1.10176171563214       -0.87842192877975
C            3.69030465276808        1.29280784511739       -0.90767460092467
N            4.10954912205828        2.66424057789948       -0.54790903951254
C            4.42692823486546        3.56899513930185       -1.67859947789101
C            3.37408044346523        3.60124167890676       -2.77009702316852
C            4.39769939288868        3.00137851278665        0.78269648099655
C            3.91987640102831        2.20730319759273        1.85142463721160
C            4.18123319930656        2.52971921204435        3.14496397412113
C            4.95313773027446        3.66150597072895        3.47681992731702
C            5.23992516363347        4.01298476264092        4.82142124702905
C            4.57148592059340        3.25508082036353        5.91511956894901
C            3.37513120348542        3.73233950707129        6.45431467999099
C            2.68203983521833        3.01106906106900        7.39567701184544
C            3.15994455980017        1.78789202857884        7.82085798566879
C            4.33895397151811        1.29608057291741        7.31104790701927
C            5.05782906513903        2.01344695063828        6.37014321463920
C            6.36682287649933        1.48146589803844        5.89156536172179
O            6.40966743824767        0.40080037792677        5.33589077681275
O            7.44887552884529        2.26540235217038        6.14288430437625
C            6.06769467866128        5.11913498743949        5.05342715116381
C            6.54429551480217        5.47505362497597        6.40302268176156
O            6.38104104716676        4.68677346807395        7.31821551516331
O            7.20914297908917        6.66771956378518        6.60946297619470
C            7.58199786048550        7.44149757459256        5.52347634039024
C            8.30854169176622        8.61637715559904        5.75518280260680
C            8.72728155674529        9.41716281741625        4.68503725121017
C            8.40792287502881        9.02934948249921        3.35941168000079
C            7.69003756044206        7.88126842635531        3.14828225270245
C            7.26685006746759        7.07402689241171        4.20352675118436
C            6.49662560609659        5.89313684384026        3.95758100028860
O            6.20968733128945        5.58700164612069        2.66624167505572
C            5.45309411939600        4.46298158785856        2.42395534074057
C            5.16583113915786        4.11314389678746        1.10557855748089
C            8.84700418378222        9.86363524863588        2.19267590550641
C           10.08741941906744       10.71047036422169        2.51129687458009
C            9.90713235994974       11.46749124374957        3.82593866533072
N            9.45431573960503       10.58468641694121        4.92138513471099
C            9.82718348092649       11.02114993644437        6.28395154924403
C            8.86238458403376       10.49276012181078        7.34418483832262
C            8.63137754828242        8.98585850055400        7.16755478886359
H            1.90282399926149        0.06810528465137       -1.08696283264623
H            1.69085980798004        1.73196889164321       -1.61642210948586
H            1.76926586013446        1.37104245170607        0.09224047755202
H            4.09593890612694        1.05627527831473       -1.89630106212769
H            4.18971166466554        0.59812245342362       -0.22509810207473
H            5.40124852731598        3.27154647592784       -2.07940511071741
H            4.55086849896326        4.58082055403644       -1.28515362893878
H            3.25781864380945        2.62890496012498       -3.24806314339545
H            3.62548773517054        4.31732132472304       -3.55513961856190
H            2.40341854850726        3.88805800047568       -2.36388259310124
H            3.33137832596877        1.33427135307591        1.63813148791895
H            3.80722754057207        1.90759634583396        3.93904135927215
H            2.99507008957784        4.67930378073524        6.11071257998897
H            1.76000169209237        3.39739739011438        7.79828609166676
H            2.61226933951908        1.22110006327390        8.55602644501683
H            4.72384451515473        0.34738518309431        7.64531768511219
H            7.15416872997314        3.08839335965809        6.59758247025981
H            7.43443338862541        7.58525997492417        2.14638146497895
H            5.59767183211501        4.72284956752841        0.33699734863510
H            8.01794795225896       10.51604645591513        1.89544604999830
H            9.03958695526726        9.21139505968553        1.33190331581370
H           10.30304066574559       11.40763817274896        1.69011844744155
H           10.96445284958852       10.05668694659954        2.58758724450960
H            9.16393763848579       12.26229477719390        3.71149375009334
H           10.84149931938933       11.95005394257747        4.13169144272076
H           10.84324252627541       10.66566200802662        6.47971078810852
H            9.86659242323086       12.11539581397989        6.29989998221193
H            7.90511239590327       11.02068600843226        7.25920932881991
H            9.23834503145929       10.71201285770660        8.35279352533117
H            7.81931529782472        8.63576354088715        7.81776928554974
H            9.52287053253839        8.43003574146891        7.47984289011701
