67
 energy: -11.804284861043 gnorm: 0.000348180963 xtb: 6.5.0 (97a52f5)
C            1.85042324733990       -1.09012113840894        0.25415124663932
C            3.33953488592108       -1.33666834096642        0.38157332882736
N            3.78955087256160       -2.51552384723732       -0.38751021311025
C            3.74394148241936       -3.80365793242758        0.33470982627364
C            2.65474409716953       -4.72006006587163       -0.18560629740388
C            4.20619069650615       -2.42009729068425       -1.71948792971508
C            4.00105293515547       -1.23728963734941       -2.46716604422377
C            4.40381055808030       -1.14292603874976       -3.76105718947366
C            5.05308637340381       -2.21489368156345       -4.40711359637618
C            5.49142428993915       -2.13031101282795       -5.75391453340388
C            5.10571994171335       -0.93732992956575       -6.55721001478543
C            3.96167515521931       -0.98440502851204       -7.35626078976501
C            3.51981284680376        0.12752168120500       -8.03088867653127
C            4.20387815623881        1.32140350654191       -7.92126240803660
C            5.33844115501590        1.39462230184894       -7.14713433904105
C            5.80673230227300        0.28167294782067       -6.46971971756895
C            7.07927625299555        0.37929520495841       -5.69768326470853
O            7.16915648023392        1.17853179627054       -4.78601302905248
O            8.07981361658705       -0.44708578794286       -6.10240754904567
C            6.18642139910082       -3.22092616706145       -6.29267422253406
C            6.82007708766768       -3.16696972390527       -7.62378156958760
O            6.92347959004662       -2.09128906356741       -8.18704590782501
O            7.32939191340888       -4.31598533815275       -8.19464228964421
C            7.40690765054850       -5.47360006305386       -7.43948056647868
C            7.97390014635147       -6.60836564828538       -8.00309166576836
C            8.11115921803695       -7.79709318883584       -7.29507973504082
C            7.65939327621412       -7.84368521601061       -5.95190296517060
C            7.08796428283620       -6.72705923070908       -5.39603746864213
C            6.94753763755073       -5.53676560186635       -6.11156546079522
C            6.32301712064762       -4.39201369530522       -5.52188256643298
O            5.88105711467479       -4.50274876528083       -4.24310573280087
C            5.26737950777053       -3.40815619537879       -3.67750778967298
C            4.83688790042263       -3.48161884143260       -2.35395930473609
C            7.80014446328313       -9.09996742890876       -5.14511758358196
C            8.94482971349218       -9.99178223390015       -5.64785778111340
C            8.85910469324265      -10.19613458019531       -7.16037778002920
N            8.68309864478858       -8.92331155789662       -7.89203345118087
C            9.09798530257708       -8.92937217982996       -9.29528239393250
H            1.53964084157664       -0.18636982665731        0.78206599920882
H            1.27939685005900       -1.92358949046076        0.66398192355669
H            1.55630982994734       -0.98459847193343       -0.79038936711176
H            3.62106486790508       -1.47796929744577        1.42989995195287
H            3.91832249222761       -0.46941620306914        0.04973995857867
H            3.59344992065327       -3.60344070132088        1.39993675119265
H            4.73037059211961       -4.27177527320320        0.26611526534479
H            1.67255485076378       -4.25923759164756       -0.07703206438054
H            2.63434794794190       -5.67383603547415        0.34503652321221
H            2.78879567151692       -4.93327382918979       -1.24633364192762
H            3.50536010434683       -0.40095531370046       -2.00939832904075
H            4.24093863860525       -0.23100639274456       -4.30803744267368
H            3.41917347527943       -1.91168477491510       -7.42757153815024
H            2.63356422605430        0.06990775428793       -8.64158104992043
H            3.85223911818090        2.19439786829318       -8.44671701254393
H            5.88400327715574        2.31962912963455       -7.06474960886063
H            7.76251355676399       -0.99855692914305       -6.85465699349509
H            8.32266980038629       -6.53851342429606       -9.01516867580362
H            6.72931918668237       -6.75644677471821       -4.38248634198436
H            5.02727097335696       -4.39464365242478       -1.82494683041973
H            6.85381767441904       -9.65143269418132       -5.18427731609561
H            7.95333925467917       -8.83910075524705       -4.09063956213944
H            8.93964736079777      -10.95896422478129       -5.12687798944194
H            9.90517282401843       -9.52384508050267       -5.40023374480997
H            8.01329645429307      -10.84286744949597       -7.41237699638717
H            9.75990191039894      -10.69256819134723       -7.53637297000903
H            9.41595427931855       -9.92412923552248       -9.59869097237653
H            9.92885383309144       -8.24221849257320       -9.43894841282351
H            8.26638817921506       -8.63253763316521       -9.93039208719639
