31
 energy: -6.468898436250 gnorm: 0.000651227846 xtb: 6.5.0 (97a52f5)
C            0.96494178279948        0.37052284334419        0.39150802836101
C            2.40327095267865        0.13101169570312        0.12150374587969
C            2.99827133969181       -1.08327194095904        0.16647191136211
C            2.37650631153413       -2.37676021587773        0.42204511723851
C            1.07919813160477       -2.68835978536796       -0.00196956548910
C            0.53498061081772       -3.92595574906537        0.24315813828711
C            1.27310523898574       -4.89159888710698        0.91056510438635
Cl           0.58475025625595       -6.44143921912584        1.22584597423960
C            2.56684549817058       -4.60907690048740        1.32214265122143
C            3.11226361269968       -3.37260494061203        1.07584293325176
C            3.19702055868927        1.27977963689383       -0.18118943987440
N            4.48130169412337        1.34503190183229       -0.46574539838590
C            4.88918145994625        2.64972349692083       -0.70672382745067
C            6.20387892159000        3.04915899041813       -1.03935976400248
C            6.47699090574206        4.37281951428677       -1.25255552625858
C            5.47581949468959        5.35058991164319       -1.14726769587112
C            4.19184171924057        5.00636023556565       -0.82792578423959
C            3.90706222383752        3.66558570734137       -0.61123634602676
S            2.53779914824065        2.81489503325052       -0.21564226224818
H            0.58665240913187       -0.29590201333133        1.16729288745681
H            0.36987617692573        0.23987024478535       -0.51240992632957
H            0.81788617912114        1.39762477427354        0.73060406087040
H            4.06532881071264       -1.09534691294835        0.02685330984148
H            0.51631958897745       -1.96286603931245       -0.56063030893243
H           -0.46222401502083       -4.16597593276775       -0.08497346517394
H            3.13104599437462       -5.37089145757909        1.83272770853470
H            4.11614326460973       -3.15393958380638        1.39722282678536
H            6.97193471112844        2.30107834199038       -1.12127409219085
H            7.47994947728043        4.67301943612654       -1.50732928894723
H            5.72384723729075        6.38481952546419       -1.32082193444826
H            3.40868030412685        5.73841828850892       -0.74173977184612
