45
 energy: -7.333511667553 gnorm: 0.000541642895 xtb: 6.5.0 (97a52f5)
C            1.14571788559290       -0.29085897591146        0.48755655765351
C            2.57792890597768       -0.05502453462695        0.04206322767682
N            2.88399676908860        0.74876750099786       -1.18133325936357
C            1.89586195204053        1.36406085811502       -2.11976085961529
C            0.40190176053365        1.20097091666770       -1.90293901471267
C            4.24663633225982        0.94067268449465       -1.48569982703628
C            4.65490400173243        1.68629749073749       -2.62452292186330
C            5.96436553823931        1.87180898310592       -2.92265550153795
C            6.98902220869430        1.33441442607571       -2.11254004802339
C            8.34216349796655        1.52246715313709       -2.41229254724559
C            8.74499846219068        2.32361830273139       -3.63810130477352
F            8.21412006591050        1.73750621749341       -4.72017159257191
F            8.25459419162369        3.56452412593935       -3.51206788449294
F           10.07936108540628        2.36916313265747       -3.75235296416882
C            9.27571384032423        0.96100045318554       -1.55575540855789
O           10.65844679168937        0.97536616173296       -1.58461527647808
C           11.09813931795770        0.26447366087284       -0.49090445066424
C           12.38700071931393       -0.02261502152078       -0.05247141318359
C           12.57360388036710       -0.77171392376093        1.10441306527216
N           13.84442577780021       -1.06101162458675        1.54895359532208
C           11.44297232374354       -1.23616426386069        1.82630118985342
C           10.17208749115261       -0.96650069025817        1.41300399412962
C            9.99195750241635       -0.21205292061292        0.24809162667520
C            8.82651633422791        0.22583252345326       -0.42312023121509
O            7.52568682573767        0.02277240628437       -0.10700991673839
C            6.61003129444704        0.58366319202169       -0.96118733605915
C            5.24936394616297        0.40966312541908       -0.68711204702526
H            1.11101299828735       -0.88667240698626        1.40338861810620
H            0.57652432532308       -0.84485857051650       -0.25819099193179
H            0.63459663183690        0.64519289789567        0.71154701124674
H            3.05915272809358       -1.02792277817706       -0.11032962160211
H            3.11374220753710        0.43536073959172        0.86285946039513
H            2.14288552616457        0.97154539416919       -3.11285248904784
H            2.12786142384511        2.43507534380617       -2.13866084954291
H            0.10185166775315        0.15403203851090       -1.94033002240328
H           -0.16779386506152        1.71180272873591       -2.68363010729536
H            0.08092472207428        1.63604006003473       -0.95696194716374
H            3.91752708802904        2.12057209376822       -3.27488000486286
H            6.25059446377135        2.43933131384390       -3.79333515867216
H           13.22771380538611        0.33873875556238       -0.61429789138209
H           14.67522704472769       -0.75746902628263        1.07725581290354
H           14.03242811704489       -1.59818474101158        2.37426886659831
H           11.60500231479360       -1.81343062246585        2.71992495621243
H            9.31142437362725       -1.31691708582052        1.95793196804888
H            5.01485572416937       -0.16628749464264        0.18699293913821
