54
 energy: -8.959149425278 gnorm: 0.000205618633 xtb: 6.5.0 (97a52f5)
C            2.23056557399407        0.09953893546743       -0.34383050439038
C            3.63312417101179        0.15421131955779       -0.91267713462136
N            3.82551995161379        1.28412604394224       -1.84328375531414
C            3.37229586318551        1.06259169675742       -3.23084318947942
C            2.18893630972939        1.93568590929378       -3.59652380235097
C            4.36201172073648        2.51868928392402       -1.41922488361206
C            4.40065397097344        2.86403819595191       -0.05966949644473
C            4.91576411231051        4.06341197246858        0.35457463496329
C            5.42968769969591        4.98355423017997       -0.57361434045314
C            5.96600055737084        6.21689475199777       -0.19196625263151
C            6.47103508457807        7.08734759726217       -1.13942587611430
C            7.03275791890270        8.37255047175552       -0.73217371803293
O            7.03423703935726        8.65607730823507        0.45800571587176
O            7.54314352382968        9.22750064936384       -1.68613505335138
C            7.51503605707631        8.84900328387518       -3.02210470945319
C            8.03616947066150        9.71077890079641       -3.97494351827482
C            8.04760360465283        9.39871924725058       -5.33242216016038
C            7.51099854753792        8.15927517592964       -5.75089173075876
C            6.98700245611213        7.30058929165124       -4.81408140604179
C            6.97583501289441        7.61612426323022       -3.45122527635437
C            6.44032691757606        6.71662894137287       -2.49304938674711
O            5.91281790124790        5.51468898198164       -2.91661161199912
C            5.40806389595648        4.65044167819573       -1.95599586981449
C            4.87215867421194        3.43282577378612       -2.34356810041398
C            7.51302434363098        7.78262146535055       -7.20216353119986
C            8.64183734920708        8.47322734930682       -7.98120693840964
C            8.65602832808761        9.97808859962413       -7.71220746596428
N            8.58525126934446       10.29704050510073       -6.27054176081107
C            9.05489581654961       11.62677395247544       -5.88277411217473
H            2.11410576776119       -0.71014820514226        0.37907646419306
H            1.49404197073176       -0.05453060650956       -1.13288315636667
H            1.97245420437094        1.03313177461073        0.15663705162551
H            3.87507073973920       -0.77184620777054       -1.44394123339557
H            4.38256450580451        0.23103266959840       -0.11925084647387
H            3.11472452574639        0.00544491624659       -3.34795987917234
H            4.21938743686123        1.23231166816436       -3.90177611373839
H            1.34312715018407        1.74170525262581       -2.93628622295767
H            1.85606860535333        1.76601472368858       -4.62216438132232
H            2.43226059556270        2.99378337464201       -3.49704735634416
H            3.99955325025073        2.18405382544204        0.66942211938113
H            4.93071925228873        4.31400308067634        1.40106918751613
H            5.99340249023805        6.49861404674864        0.84486628363518
H            8.44721962355966       10.64046756725372       -3.63210337271208
H            6.57259466176117        6.35742732767207       -5.12229704701762
H            4.88026995644447        3.19598781411756       -3.38942082263046
H            6.54309634242594        8.05021962912882       -7.63660504841759
H            7.59427303284963        6.69265436116237       -7.29538493352694
H            8.54680646520467        8.27473936589245       -9.05747091274780
H            9.60508440093018        8.04309537275812       -7.68184967704066
H            7.80568348018794       10.46262333554771       -8.20140069725807
H            9.56107512445879       10.43710134319290       -8.12391692504568
H            9.31528011385836       12.21337108110131       -6.76072522070675
H            9.93638497885886       11.53949242871863       -5.25157320509140
H            8.27219818255398       12.15509428433013       -5.34311881984890
