53
 energy: -8.535066097856 gnorm: 0.000402988832 xtb: 6.5.0 (97a52f5)
C            1.31034140107110        1.65248837433028        0.04654705466232
C            2.35379764594750        0.55508804462971        0.00448022710457
N            2.92296767221154        0.24549266196434        1.33357501467571
C            1.98508253673730       -0.14077791143043        2.40907665500002
C            1.07746026326511       -1.29256433718325        2.02813541827227
C            4.31365403471312        0.36751674168836        1.58255159307043
C            4.78964076121882        0.77165341187618        2.83811774077346
C            6.13447346777528        0.89200671261109        3.08055466598734
C            7.07310157589749        0.61212432333699        2.07702164832547
C            8.46021234527019        0.72996547085970        2.28319884320463
C            9.35083198837454        0.44315613193796        1.27769007881954
C            8.85823964602603        0.02589422335653        0.02966802774571
O            7.49896160617911       -0.08524977181774       -0.22580176119519
C            6.61282668530166        0.20285555649757        0.79941522859096
C            5.24666154116433        0.08979775516106        0.58183972884251
C            9.76741010008542       -0.29603353916898       -1.03685924147969
C            9.27730726975518       -0.52138648039221       -2.32851909299138
C           10.12353868391070       -0.81354820033509       -3.36409601787137
C           11.50498479407103       -0.90499437216832       -3.15844028296403
N           12.38035995385884       -1.20216672221014       -4.22268547602282
C           13.79917098084394       -1.47327912385443       -3.99389332457004
C           11.90952497810288       -1.26676912267916       -5.60577813868709
C           11.99091218933670       -0.69981258135355       -1.86112637010144
C           11.15599592755859       -0.40141579758860       -0.80717154325369
C           11.70351980480863       -0.24749409768305        0.58255098130510
C           10.82595176368775        0.63642423114950        1.49017618631038
H            0.94655416880422        1.90820095427509       -0.95037794073450
H            1.72058263871463        2.55879017164225        0.49324513896020
H            0.44631143078616        1.36099976474309        0.64369850021007
H            3.17110519914369        0.85421719954192       -0.65775969327794
H            1.94748978132102       -0.36802713424611       -0.41956610678668
H            1.40907768980797        0.74423160269632        2.69592982898871
H            2.57305526653913       -0.41687516769966        3.28927200797541
H            0.42633323763965       -1.03118272923727        1.19386018204128
H            0.43676744781337       -1.59835013559396        2.85737885934978
H            1.66234719725405       -2.16089532716191        1.72253936246360
H            4.08512843636818        1.02708032380167        3.60898138232755
H            6.48345872682112        1.21055939048085        4.04721075060932
H            8.82373357630196        1.06150827082642        3.23861659685773
H            4.91733307122358       -0.25960600261164       -0.37733633856852
H            8.21556192401661       -0.45357659204600       -2.49081628345119
H            9.72243140230667       -0.98467922447174       -4.34663864541733
H           13.91292658351666       -2.22979696547703       -3.22072612669593
H           14.30622757756188       -0.56239007817490       -3.68380028939445
H           14.27626713517804       -1.84288070963060       -4.89849135955088
H           11.33980829785156       -0.37222847774229       -5.84682968747604
H           11.27946557166837       -2.14248217214820       -5.74363187077150
H           12.74489773400691       -1.32995223450323       -6.29888661227996
H           13.04574297152580       -0.77853168160917       -1.67632059097633
H           12.72043218272804        0.15874341652868        0.52523625455619
H           11.80687945554497       -1.24447362493943        1.02555683030423
H           11.06328726884737        1.69217009496198        1.31701331011520
H           11.06309440953360        0.44896548626684        2.54426469707311
