66
 energy: -11.093146360368 gnorm: 0.000479628044 xtb: 6.5.0 (97a52f5)
C            1.29694397478149        1.47639071699598        0.69228401915772
C            2.33352646458014        0.49977604330322        0.17387978890509
N            2.88775130172257       -0.37350546373295        1.23134674241750
C            1.93801816346620       -1.19415256247100        2.01380516631562
C            1.06810697969290       -2.08618911232809        1.15069807184124
C            4.27976540331258       -0.41401795568158        1.49360028534083
C            4.76714469368168       -0.62247202644011        2.79187908012706
C            6.11240993471030       -0.66404001323490        3.04329160303077
C            7.05376514707726       -0.50061689667171        2.01632195696226
N            8.37156262280759       -0.56043219445066        2.30946220310470
C            9.22113024325862       -0.39377340747260        1.28944199988528
C            8.78332959012525       -0.16042244771800       -0.03744879084034
C            9.71741947906783        0.02288478280446       -1.05323125192546
C           11.08705281338577       -0.01440743396319       -0.83653132474979
N           11.96540235355063        0.19458974133789       -1.89296663553547
C           11.57877300109409        0.52551494452026       -3.26096250982013
C           12.75071626482443        0.56585144156675       -4.22632454187502
C           12.30638515492937        0.84268234683522       -5.63073902167719
O           11.30066887811619        0.31851709145919       -6.06592153804847
N           13.07431932305523        1.68651752037171       -6.40164917115320
C           12.63459961889887        2.09009103981155       -7.72627420511353
C           11.51222481154837        3.10496931581916       -7.65344664070609
C           13.80477215156084        2.62466408689143       -8.52292721895262
O           14.50233683750019        3.49019510499288       -8.04638657695630
O           13.97095392765055        2.07980459793840       -9.75963268059644
C           15.07253813632134        2.65262758684668      -10.39288365920368
C           11.56672574007238       -0.26773870322955        0.49146258013102
C           12.93637452952721       -0.34862656577321        0.79796625984241
C           13.36453787872942       -0.58978638095858        2.07689296266074
C           12.44563338211618       -0.76279176858718        3.10430640217490
C           11.10362561354250       -0.69610411015345        2.84070476982788
C           10.63305762062873       -0.45160415369757        1.54452274374500
O            7.44532995588912       -0.10802269519651       -0.35247833429689
C            6.57535189866821       -0.28212307311256        0.69853158758184
C            5.20756710175024       -0.24606792579917        0.46705741374871
H            0.94868694165788        2.15395485905220       -0.08973613606433
H            1.70863765320129        2.08373113816645        1.49938882531349
H            0.42283771875923        0.95958331186075        1.08868106395376
H            3.16005065961667        1.05404007381326       -0.27974379523074
H            1.92544540814892       -0.13473239841108       -0.61852425110551
H            1.33403383918171       -0.52468628922686        2.63351885363194
H            2.51401462907055       -1.81168583172593        2.70891107150635
H            0.42524867842331       -1.50228443209263        0.49191112857532
H            0.42144602784066       -2.72886288152947        1.75133328961801
H            1.68174409029181       -2.72973366450905        0.51900020516178
H            4.07126768883416       -0.71080552366502        3.60686116201459
H            6.47444577970395       -0.81862266725712        4.04465584838704
H            9.33996521749627        0.20788030262596       -2.04000014082408
H           12.96304188121490        0.30796212674510       -1.73756176683028
H           11.05759077945464        1.48869373174073       -3.25636394196420
H           10.85561392891124       -0.21892993834102       -3.60872010453514
H           13.28066797300744       -0.39108735212012       -4.20427812122816
H           13.47196736763870        1.32398272184645       -3.90901025319497
H           13.83265406182019        2.24345101197998       -6.00806314613259
H           12.27882507138766        1.17398649855166       -8.22337842927617
H           11.86046334107336        4.01089393063831       -7.15831663708650
H           10.67046276475629        2.71191465746109       -7.08245296731084
H           11.15881205957444        3.38075293044095       -8.64740877585457
H           15.18376103202081        2.20372443355766      -11.38274138395110
H           15.96662181332214        2.46367455022283       -9.79348384377809
H           14.91114824448109        3.72956625381953      -10.48567482311916
H           13.66473101271492       -0.22894443116117        0.01796956720018
H           14.41958271554306       -0.64782516388537        2.28926268366030
H           12.79066690066160       -0.95255076630897        4.10734805891681
H           10.38541924823961       -0.83346094947597        3.62992547657556
H            4.87393448030259       -0.12450171364074       -0.54543025237618
