44
 energy: -3.939085664405 gnorm: 0.004573253190 xtb: 6.5.0 (97a52f5)
C            2.66944407272786        2.69285969532591       -1.29796341890652
C            2.28991479699385        1.38950802083067       -0.92831385474507
N            1.91708563324470        0.50057960583009       -2.04176266865007
C            0.47346054122724        0.72695105279644       -2.40083451232678
C            0.22366218028122        1.88046295160902       -3.16505440401292
C            2.02803956517419       -0.88002636211527       -1.55536771017039
N            2.95687354262540       -1.43284950853490       -2.36063504930300
C            3.39336986087770       -0.53651727605936       -3.26706076689979
N            2.76848488193596        0.62984541078345       -3.14793127968571
C            4.40721802312165       -0.79491152441254       -4.24986414434053
C            4.92194115946909        0.34503711275001       -5.06741924650184
O            5.24433389669576        0.12765945407002       -6.22357258433828
O            5.01997085106262        1.47921105301669       -4.49764033287904
C            4.94208252116715       -2.00662834332968       -4.47075794831550
C            4.70529383109815       -3.18709842197254       -3.89164035689042
C            5.29505966627429       -4.34377223458946       -4.21633899324383
C            5.06088556670749       -5.54200644006971       -3.65203040649609
C            5.65354055515740       -6.68233671477240       -3.97261810996909
C            5.35961653215868       -7.87935400117704       -3.35086304854597
C            5.89921116481695       -9.05928581729087       -3.60288316941639
C            7.30803296776308       -1.03727389785413       -1.47406020227512
C            7.65137200394519       -0.43871923967626       -2.52385691429250
H            0.44870769022642        0.61176359714801        2.16529867058786
H            0.58520106628684        0.04903639693173        1.66516120613432
H            1.82958378821128        3.31343844693758       -1.53928880763925
H            6.20752521861765        1.22559394766981        3.24216600732386
H            3.36974230391040        2.69484089815388       -2.11008375612860
H           -1.24435438723169       -3.87868436864066        1.22673498788016
H            1.90015008964443       -3.23808785097150       -3.51744012195820
H           -0.15533449396320        0.66384012181359       -1.53264129648790
H           -1.79208055168800       -3.75551559626710       -5.46458588732812
H            0.78819759041938        1.90306270111164       -4.05130647364316
H            4.41070848573628       -2.73338509403378       -1.06568575075387
H            5.11434963448777        0.64595215483225       -1.93197169465722
H            5.87178176483853        2.23515798272066       -6.31829049332370
H            5.51462550901032       -0.69107537663763       -8.06200748689045
H            4.88455113606082       -5.07426627433318       -8.77296642744672
H            1.74490722323309       -9.33267231981898       -7.07835410003962
H           -1.80981130524234       -8.38584340184315       -3.15067423826555
H            6.39761659735450       -6.67788640947774       -4.75093882232996
H            6.63376637054551       -9.21327784830539       -4.33628499467807
H            1.93855128690471       -6.59403061326857       -0.45538644980658
H            6.24440783457293       -9.48768825492318        1.13804245334574
H            6.22640333132689       -4.79252741747700        2.30850259719590
