41
 energy: -6.371580621367 gnorm: 0.000423174800 xtb: 6.5.0 (97a52f5)
C            1.97420697595894        0.42106963122532        1.56100146456764
C            2.90105513794548        0.40608507291884        0.36537222175150
N            2.61886766857294        1.50818232277651       -0.65272751404376
C            1.25158780988754        1.30603464324807       -1.32347269081620
C            0.13718446423595        2.07850204988977       -0.64831347552123
C            3.69463318710001        1.38192867008909       -1.74335014554426
N            4.24476613307371        2.72759727360930       -1.72518942143142
C            3.64251339172153        3.47377448104507       -0.73360914929885
N            2.72749356344787        2.78332058453687       -0.07571895414584
C            4.03908188440039        4.83422634234952       -0.52754824763494
C            3.46041422941943        5.70613313054588        0.52533803262929
O            3.84079714527867        6.86082723001622        0.59993746321293
O            2.53557105358386        5.16791768185923        1.35796068020757
C            5.00637727634261        5.34303559667870       -1.34420415464387
C            5.62242368451629        4.57789930673794       -2.36890515085731
C            6.61505268634356        5.11615712728249       -3.20267179395681
C            7.20189897575479        4.36477459201674       -4.19335123331262
C            8.26289579262638        4.93830958593717       -5.06476535725056
C            6.80309951529832        3.03178822063463       -4.35955865109192
C            5.84011532334890        2.47648453817698       -3.56420347265601
C            5.22946226617137        3.23310463381559       -2.55803620893434
H            2.31993954947356       -0.25081035025252        2.34966860364984
H            0.96651186308102        0.10348333412305        1.29210907893404
H            1.90892426752357        1.42284197855530        1.98707807627703
H            2.87446142112886       -0.56272052708317       -0.14080154602566
H            3.93161631045243        0.55320924181898        0.70158599380035
H            1.02911196046038        0.23659887856627       -1.36833587905184
H            1.32957487536620        1.64345176874567       -2.36091659248041
H            0.00578444705462        1.78295310971809        0.39120512121810
H           -0.82089512359955        1.93798521909902       -1.15334663833406
H            0.35882002512151        3.14683292246534       -0.64835419268228
H            3.28405039472576        1.14199483934894       -2.72394923513719
H            4.46607760839502        0.65652290718164       -1.48426865512829
H            2.40265395775860        4.23613845939045        1.09404218507362
H            5.31146709943611        6.36413290808105       -1.19798445062415
H            6.92012780841263        6.13691247742509       -3.05955782322311
H            8.32545245163414        6.02108953186918       -4.95406491531055
H            8.06041746903222        4.72416732393325       -6.11461026334229
H            9.23701494311316        4.51800262421686       -4.81297569664917
H            7.26982367922065        2.44211762418410       -5.12982554396969
H            5.54507682718682        1.45191301322930       -3.70502186821536
