38
 energy: -5.823677726888 gnorm: 0.000379394081 xtb: 6.5.0 (97a52f5)
C            2.36535439626130        0.59311469112561       -0.46569970083213
C            2.92525661972683        0.42337513270047        0.93681155225245
N            2.50439470741878       -0.85077596051679        1.66991324141857
C            0.98679773517446       -1.00727768068633        1.69439695784459
C            0.29571667815859        0.08027953351014        2.48933382360414
C            3.08083644746939       -2.06506820103207        0.93122117380993
N            3.77992236463505       -2.72954515061371        2.02042581608307
C            3.71037439753314       -1.95712484250498        3.16718498997351
N            3.01704416274232       -0.85536936274011        2.98052105427488
C            4.34741986261147       -2.40604101255033        4.37077852291964
C            4.34786631824693       -1.62987946556445        5.63524545195348
O            4.88945280574288       -2.11347043009633        6.61170290543879
O            3.74618376695265       -0.41450601005966        5.63879157153588
C            4.98274450834615       -3.61042715483254        4.33915816789864
C            5.03925949900583       -4.41511844395315        3.16720011803123
C            5.68557814031994       -5.65338029672008        3.15246260828422
C            5.72443271331047       -6.40628222525720        1.99917674261448
Cl           6.51226999739191       -7.92727806408891        2.00729530169535
C            5.12247016754279       -5.94102190639630        0.82403107727808
C            4.48506921134273       -4.73580443977913        0.81018009203191
C            4.42416438384259       -3.95015068448658        1.97434669681061
H            2.78403884017169        1.47242878865407       -0.96012203506059
H            1.28237254150812        0.72074663287726       -0.45557655924885
H            2.58612948546867       -0.26871615463113       -1.09613418870244
H            2.64820012727301        1.27098579499728        1.56833233446674
H            4.01890747049527        0.42553124184285        0.91742803275513
H            0.78078043209126       -1.98138044994886        2.14834384732081
H            0.60498536394744       -1.05906717213253        0.67204035117619
H            0.71362073388112        0.14618173463037        3.49472326419865
H           -0.77590077080833       -0.10715773972946        2.58713583353244
H            0.41359274632140        1.05879121549715        2.02275905016041
H            3.79022857337558       -1.78032327746981        0.15412279111244
H            2.30677115175237       -2.71053425557386        0.51535463198141
H            3.38148202990269       -0.25091492696484        4.74837464030469
H            5.45836609403803       -3.95983066590920        5.23904936271175
H            6.15569216654769       -6.03045679839363        4.04370562860708
H            5.17275486521985       -6.55048858062761       -0.06305726066657
H            4.02351926503559       -4.37718341257740       -0.09283788956830
