38
 energy: -5.808761516623 gnorm: 0.000878738644 xtb: 6.5.0 (97a52f5)
C            2.39575727503684        0.46644608088574        0.35701247080267
C            2.98059407821386        0.21984855115292       -1.02276121221440
N            2.54067155061859       -1.07485814586484       -1.70572255733741
C            1.02047475218432       -1.18715593016967       -1.75885924130599
C            0.38125811854993       -0.11828557605261       -2.61838907340964
C            3.06306306293600       -2.26642657010829       -0.89387684939006
N            3.79065435650371       -2.99029113209243       -1.92427863344961
C            3.76875989573237       -2.27520521622589       -3.10958058596716
N            3.08476407594167       -1.15712871965589       -3.00132440368702
C            4.44794270683997       -2.78778500820338       -4.26387037642323
C            4.50157843105813       -2.07546638410326       -5.56410801191851
O            5.08343464101349       -2.60341329159255       -6.49335828354329
O            3.89894079623320       -0.86330914435427       -5.65136333587935
C            5.07798586946633       -3.98956854758770       -4.14523861536676
C            5.08929003466479       -4.73275460653746       -2.93185870677481
C            5.73542568066577       -5.96455218239788       -2.83052540140987
C            5.74463027094361       -6.68742399402413       -1.63834858997719
F            6.39083190777470       -7.92423012675068       -1.55050526411198
C            5.07849093895618       -6.13558340388454       -0.51531773511342
C            4.44226837692864       -4.93415526221980       -0.59101638159525
C            4.42867544599929       -4.20789054046881       -1.79190873893180
H            2.82599429491414        1.35633270743515        0.82156210314658
H            2.58022539716535       -0.37143248834465        1.02953517745073
H            1.31694264267614        0.61993354855543        0.31659775720270
H            4.07287388035329        0.19403516929527       -0.97941169231827
H            2.73958500035906        1.04457317515711       -1.69757557251425
H            0.61617421287370       -1.17846981832843       -0.74403948819334
H            0.79414688951937       -2.17506669759958       -2.17103119092040
H            0.52038650630350        0.87704046053955       -2.19487754956909
H           -0.69356874035583       -0.27671038977238       -2.73124140532998
H            0.82266815725136       -0.11199181206920       -3.61534687053193
H            2.25977150023694       -2.87832764267223       -0.48291584238717
H            3.74552884851481       -1.96108592245970       -0.10110899611969
H            3.50094800671400       -0.66147061517078       -4.78272425774312
H            5.58855616656701       -4.38457762656961       -5.00591387835349
H            6.23775459936053       -6.37129366604639       -3.68926273437800
H            5.08483638421554       -6.68855951341086        0.40822438991344
H            3.94290398707060       -4.53049971827576        0.27202957764851
