46
 energy: -7.053640385334 gnorm: 0.000318600794 xtb: 6.5.0 (97a52f5)
C            2.35108637651903        1.10521410250176        1.64504540781233
C            3.17039445400410        0.67871726869996        0.44635157694481
N            2.73683580328984        1.32560499274426       -0.86623543998756
C            1.31442792123503        0.89617209297267       -1.25848970807000
C            0.24727731511902        1.86430139576142       -0.78994357268824
C            3.68497205593857        0.79553235635389       -1.95554564730326
N            4.09656256209081        2.05074020634236       -2.55469740342020
C            3.58234360775289        3.12560151103541       -1.81761553821408
N            2.85482274857255        2.72606960934055       -0.81803748284868
C            3.87386874748261        4.47475198917465       -2.23011450530546
C            3.42068739518438        5.66812585179596       -1.48586785144781
O            3.69272151059075        6.77054922046110       -1.92644793718120
O            2.72131639056386        5.47401371039805       -0.33648929479744
C            4.60645651313908        4.64583145544112       -3.36712763101260
C            5.09397946463160        3.55834513394031       -4.14359330974684
C            5.83063863386357        3.76612729882033       -5.31962754358246
C            6.30412265805806        2.71063099351791       -6.06604631564449
O            7.08899182314461        2.93734582569365       -7.21632204309334
C            8.38848083603870        2.40233740560085       -7.10760094301719
C            6.01214663525230        1.37430598764838       -5.65718121260098
O            6.41765430679134        0.28421853168653       -6.44693924071278
C            5.93525229031610        0.33620939210751       -7.77285350122138
C            5.31383757376803        1.16690679315101       -4.48115562819815
C            4.84303527890924        2.23279571302590       -3.72330180338654
H            2.80334771220500        0.77509029958277        2.58286492872497
H            1.34488346807517        0.68621840332162        1.61340948531721
H            2.26217606496421        2.19124710710472        1.68658216862184
H            3.15716924565855       -0.40845265465762        0.32950051610567
H            4.21593942017789        0.96246760011308        0.59897946107420
H            1.13030274899194       -0.11637026975437       -0.88950772041952
H            1.27074830192285        0.83436905139545       -2.34990549817264
H            0.22174667682204        1.95331064986306        0.29482821242169
H           -0.74966283392471        1.56144201874779       -1.11753337539388
H            0.43701659096886        2.86324850941029       -1.18618468553941
H            3.18833328216935        0.15405202926537       -2.68320484010328
H            4.54955462223752        0.27780752738976       -1.53974217116793
H            2.62754137656142        4.51068679211694       -0.20203445728427
H            4.82048420730229        5.65087215040811       -3.68608081778436
H            6.04832609686899        4.76572601706149       -5.64738508340498
H            8.91573033802018        2.91339286368551       -6.30027839998247
H            8.91010080183324        2.56862787564138       -8.05166347222617
H            8.33054897609417        1.33267297941928       -6.89738033339312
H            4.84954606654472        0.22752593002376       -7.75678328951234
H            6.37879142047126       -0.48806980685097       -8.33360721363205
H            6.20698097877623        1.28806450205732       -8.23191966764811
H            5.11636153499778        0.15783158643889       -4.17341717788044
