42
 energy: -6.498223736529 gnorm: 0.000714248116 xtb: 6.5.0 (97a52f5)
C            2.38304633269937        0.48456840837129       -0.56089850302095
C            2.98118566223529        0.90475853965315        0.77115592072302
N            2.45883919269045        0.15598104360359        1.99764025229500
C            0.93609576285312        0.20289850995507        2.07262013867117
C            0.39996772215120        1.60503890271994        2.26826523429182
C            2.87211911260861       -1.31718215651197        1.89165347492351
N            3.57250364411695       -1.48745962245751        3.15471651472499
C            3.62677440375097       -0.28075168463599        3.83237244457972
N            3.02383097568226        0.68419028894780        3.17385919172229
C            4.28550160979476       -0.20606309411598        5.10467902941887
C            4.41490690798537        1.04792017400446        5.88731844949392
O            4.97241938650185        1.00428867763892        6.96813101514839
O            3.90588549471858        2.18701504225969        5.35439558190762
C            4.82238306907096       -1.35255050271108        5.60713390719427
C            4.75496390131711       -2.59630968236276        4.91829491439090
C            5.30410155702033       -3.76182925783726        5.44716675452883
C            5.23898447270207       -4.97645979853921        4.76959558619841
O            5.81510512951620       -6.07398089427292        5.38762756231921
C            5.72216117287015       -7.28522540774629        4.67703283004032
C            4.59566305884726       -5.00578660982516        3.50949786177527
C            4.05181739034244       -3.87938064117259        2.97198445970291
C            4.11338930889205       -2.65463292702179        3.65527860328287
H            2.86822581690612        0.99386236164283       -1.39600491291790
H            1.32027339950670        0.72111076271449       -0.61928007910321
H            2.48801604138962       -0.58714620748138       -0.73134092232214
H            2.82249468428360        1.97180295568255        0.94691660369225
H            4.06728525970827        0.77348870364047        0.76442948112389
H            0.64587605440983       -0.42405615892416        2.92100902137371
H            0.50952078011286       -0.26749509378902        1.18365469698103
H            0.86575596225629        2.07770505091829        3.13376461520161
H           -0.68042578180805        1.60806689309971        2.42909518095466
H            0.60185875379553        2.23890339996622        1.40417269418748
H            3.55380306571264       -1.49902312337336        1.06103829379090
H            2.01607506474172       -1.98933765183736        1.82893230586203
H            3.50881422723129        1.96530010875977        4.49040645780797
H            5.31815480638149       -1.30769164415024        6.56119761199378
H            5.79394769337656       -3.73882231501179        6.40320515289073
H            6.20640254789088       -8.06047426987466        5.27360717366523
H            6.24181940655695       -7.19129935349023        3.72181972838686
H            4.67244210745362       -7.54720955721986        4.53292404624786
H            4.53488941998060       -5.93046238781099        2.96521554015056
H            3.56773542173956       -3.91876978140033        2.01202608571646
