49
 energy: -8.266969640591 gnorm: 0.000963587421 xtb: 6.5.0 (97a52f5)
C            2.39225027712805        1.27139061120963        0.32768200638060
C            3.11458518733672        0.45675331468484        1.38679685754825
N            2.50227708832707       -0.90841291223181        1.70058186135842
C            1.01828346122176       -0.78975833003983        2.02975554188828
C            0.75934290089779        0.00707370191070        3.29016822083631
C            2.63267124420763       -1.79837843720335        0.45885211428472
N            3.36820683583247       -2.92249727503682        1.01350075598098
C            3.65764879277152       -2.68768507825395        2.34841043800062
N            3.19433934357946       -1.52875152192112        2.75902816920599
C            4.38886835315250       -3.66717870593825        3.10168290327656
C            4.75811732922500       -3.49350341581375        4.52911041726696
O            5.35357748249794       -4.39421116004476        5.09146447928990
O            4.41359358911858       -2.32915576385552        5.13769602845746
C            4.76080920553330       -4.80929161243192        2.46050086709559
C            4.45709794672839       -5.05492266848916        1.09109759087140
C            4.84223751406448       -6.23147420901421        0.45048449439948
C            4.53391432359742       -6.46466548534758       -0.88311045542577
O            4.95420246028768       -7.65947102915476       -1.46902629111498
C            4.26665075262293       -8.17172986324948       -2.57902964334756
C            4.98587258144329       -8.82423293809415       -3.58233907951463
C            4.34494343405393       -9.34732931131487       -4.67868314577837
C            2.97350054286936       -9.24097722090650       -4.79578636662451
C            2.24365588602930       -8.61301105389250       -3.80627448242342
C            2.87847909607463       -8.08622742857273       -2.70783028773141
C            3.83896116739906       -5.46764403092069       -1.60063151026476
C            3.45271507016305       -4.30928310052582       -0.99856235000653
C            3.74365625473729       -4.07646948464825        0.35427742488380
H            2.94851936962770        2.17310058869087        0.06580131737755
H            1.40884064063554        1.59391951306192        0.66958810142264
H            2.24644670764740        0.70328896641916       -0.59090151696742
H            3.17824309864966        1.01257294412784        2.32488179823419
H            4.15096663958044        0.27186059074373        1.09116360789695
H            0.64209524519115       -1.80928571532760        2.15325819724730
H            0.48534540809472       -0.36876548043577        1.17407926419110
H            1.33072195547255       -0.39861491864689        4.12568154732580
H           -0.29625381829659       -0.00817611548278        3.57039457428165
H            1.04986755725145        1.05166456383268        3.17477701858610
H            3.21333672525395       -1.32621819008209       -0.33329618476233
H            1.66599271945280       -2.12210228117317        0.07275808401538
H            3.94370364992887       -1.77737273261693        4.48263729193148
H            5.30663680082003       -5.55159616860318        3.01570211101582
H            5.38405510204620       -6.98570351605814        0.99026043725005
H            6.05381026925619       -8.90117292978541       -3.47794791081425
H            4.91348780682834       -9.84327025096988       -5.44868974388163
H            2.47225101205324       -9.65368975215666       -5.65601433058753
H            1.17161795034968       -8.54031548120097       -3.89327919147253
H            2.31047614443954       -7.62365021268572       -1.92031504592280
H            3.64130707238093       -5.62517168901145       -2.64566188237786
H            2.92572382240499       -3.55726732354381       -1.55844410277325
