42
 energy: -6.436424665063 gnorm: 0.000524890319 xtb: 6.5.0 (97a52f5)
C            2.31544989515716       -0.01017737062585        0.66244232020003
C            2.74121350923125        1.27424321365939       -0.02783361639434
N            2.41020740748141        1.36643910225642       -1.51742771973091
C            0.93131127907714        1.09905884885946       -1.77546662191704
C            0.02826044106068        2.13957495960646       -1.14923263437484
C            3.21437683544520        0.29642012148168       -2.26631690517111
N            3.93697304354466        1.12297006930424       -3.21922607852755
C            3.64075363765395        2.45629833945078       -3.01059403541399
N            2.77983340113483        2.62590257795032       -2.02642779570429
C            4.26380536995630        3.46008848178007       -3.82206125611249
C            4.01932308103430        4.91507033031769       -3.65757319815269
O            4.57546903535133        5.68807750346565       -4.41631943981842
O            3.18696614172983        5.31091827345993       -2.66217358690515
C            5.13014097129570        3.04432285357569       -4.78887063216281
C            5.43168329297127        1.67307174251837       -5.00775776891138
C            6.32466074873553        1.26057400009291       -6.00522744937554
C            6.60162467215767       -0.07237371073585       -6.19696368834552
S            7.72289593221074       -0.55258339350431       -7.47570980945574
C            6.56575073083193       -1.28325336028857       -8.58966666466660
C            5.99534911721776       -1.03479819187027       -5.38126901607046
C            5.11953403734663       -0.66432023830756       -4.40078693012921
C            4.81705225337478        0.68957306798252       -4.19419921429277
H            2.67128746016806       -0.04759523692925        1.69393811292086
H            2.70627341652949       -0.89172923461802        0.15412130488467
H            1.23032032012686       -0.10952728062700        0.69607018672798
H            3.82145329670915        1.41926673738128        0.06076097883846
H            2.29420620022244        2.14276806182686        0.46150632474116
H            0.67620908548867        0.09239437367800       -1.43661480460703
H            0.79794943483043        1.10036048446868       -2.86112633898702
H            0.07999991391921        2.11606417046615       -0.06052087218585
H           -1.01690889814509        1.99184395566731       -1.42844702345000
H            0.31785100580799        3.14194250065637       -1.46665327895012
H            2.57681567507371       -0.42162633363794       -2.78268925548521
H            3.91768575451036       -0.22545470936737       -1.61766051966047
H            2.86898933094811        4.51051002111730       -2.20146328701229
H            5.60378090042162        3.78894876315313       -5.40390004810785
H            6.80033294520097        1.99361452868955       -6.63251771668118
H            7.06038641181121       -1.52523447516966       -9.52708631037671
H            5.75060925628575       -0.59295269865583       -8.79228410851059
H            6.15781796527005       -2.19673737443437       -8.16440584680730
H            6.23620967450206       -2.07343070362534       -5.53274120392373
H            4.65653601631396       -1.40833277046136       -3.77751455192595
