42
 energy: -6.495836215887 gnorm: 0.000563914285 xtb: 6.5.0 (97a52f5)
C            2.32584821596596        0.49701045319068       -0.56433241288673
C            2.94776771199813        0.45408778321259        0.82113223254176
N            2.42686431431327       -0.64313108876721        1.74933012980663
C            0.90699517602255       -0.59854860464336        1.86582624715791
C            0.40534919122238        0.67025335020643        2.52109251863568
C            2.80851342535539       -2.00823034777727        1.16327307506846
N            3.54447434936946       -2.57927350734963        2.27907857700494
C            3.63263812734895       -1.66424093992350        3.31044042317645
N            3.01984454963918       -0.53318731693007        3.02138268765386
C            4.33009107111971       -2.00929177651360        4.51147262615500
C            4.49491538294866       -1.08305081668621        5.65644095509217
O            5.08524795140247       -1.47935766853941        6.64471738755115
O            3.98196466435467        0.16823023757625        5.54408089103951
C            4.87570530958167       -3.26110207638437        4.59216281240243
C            4.78286162014222       -4.20227778498117        3.54270211218231
C            5.35234344342366       -5.48702500212455        3.63730101907479
C            5.25900067050764       -6.37294616921975        2.60878210249035
C            4.58793590539571       -6.03318877943484        1.40806398668812
O            4.45331029767043       -6.86884532081935        0.31446988262880
C            5.03341157917232       -8.14374189578292        0.45296541328247
C            4.01937933244747       -4.76607415349289        1.31017598011485
C            4.10235372504024       -3.84900451938528        2.34923032232309
H            2.81165025993618        1.24153035232843       -1.19850146292322
H            1.26769842167047        0.75663355969975       -0.52409834793140
H            2.40599138326834       -0.46316796714849       -1.07427535566882
H            2.81202065002639        1.40872796953765        1.33445192193654
H            4.03039432164270        0.31629920956492        0.75275192673002
H            0.61452838678090       -1.46392110207434        2.46758520006173
H            0.45772646648236       -0.74399531791187        0.88075299974693
H            0.89778212723430        0.82739275577256        3.48152833909828
H           -0.67107476130872        0.63643514786439        2.70166365837174
H            0.60435711139263        1.54823895123305        1.90594254024511
H            3.45974367066258       -1.92090311618925        0.29395487208394
H            1.93839618145127       -2.61865195782934        0.92094330493577
H            3.55934536661949        0.24532953792242        4.66729953051488
H            5.39974503477216       -3.52987856567655        5.49261775693768
H            5.86818196794513       -5.76217332380785        4.54135785698441
H            5.70429287179468       -7.34590702883892        2.71084864273064
H            4.85528293624096       -8.69370455275811       -0.47279630833554
H            4.56089201719886       -8.67403497495059        1.28155158602965
H            6.10896787377752       -8.04349552201982        0.60864541061817
H            3.51004169796655       -4.50622811015117        0.40197695864672
