50
 energy: -10.700358986246 gnorm: 0.000730427697 xtb: 6.5.0 (97a52f5)
C            1.52774553216608       -1.36297347563458        1.27864745874435
C            2.78901025358531       -0.87690833421296        0.66711279832752
N            3.28529585931230       -1.46649088559453       -0.37741207583327
N            2.65930397640800       -2.42796471281869       -1.06578691656534
C            3.28990157260842       -3.20611940472222       -2.04856973462921
C            4.66594698436110       -3.11603312857475       -2.22567672480438
C            5.30105625052581       -3.87539798501099       -3.17876213542442
C            4.57783505687956       -4.74935890745860       -3.98531255054456
C            5.22532604370255       -5.52844007793614       -4.95623587052975
N            5.75982433984211       -6.17188756738239       -5.76171872392748
C            3.19981024607691       -4.83804864981296       -3.80812025113801
C            2.56357608668669       -4.07917499586812       -2.85482616667539
C            3.48926842431448        0.26687459662199        1.22061954934013
C            4.69292852125561        0.68397897130764        0.64527321533352
C            5.37505928593151        1.77304797990567        1.13961923556276
C            4.88244067217805        2.47239060130436        2.21909933966531
C            3.68355517451830        2.08593577581836        2.83197258408748
C            3.11821233912935        2.78559337226027        3.97123342267831
C            3.84162887632192        3.90944288686853        4.61438931926639
N            1.95794456810714        2.40853129993442        4.41440588254008
N            1.27305057258518        3.04720101065117        5.36875993687967
C            0.10588515042460        2.53165488423300        5.95223595700385
C           -0.31511464683523        1.24452836342818        5.63750158464824
C           -1.44883838393464        0.71847552143890        6.20865233102187
C           -2.19737533030049        1.46549778469617        7.11369874286140
C           -3.35388288490088        0.92905036082738        7.69984661417606
N           -4.31201083820310        0.48688168384992        8.18473778122240
C           -1.77586507711720        2.75485360371554        7.42694352060058
C           -0.64211582517336        3.28216597248414        6.85609477993572
C            3.00324740043738        0.98809314031274        2.31036901467022
H            1.34782896975630       -2.40756729007320        1.02797918387022
H            0.67622637117342       -0.77542597296989        0.93470602692102
H            1.56855985406237       -1.30816064012761        2.36633671203729
H            1.64198025544432       -2.44773084085539       -1.02729374091227
H            5.22094173335881       -2.44031048677023       -1.59940901063336
H            6.36697349653786       -3.80288945636319       -3.31109748276934
H            2.63715688508058       -5.51304653327368       -4.43026494865818
H            1.49836633727976       -4.15305137812864       -2.72238012209308
H            5.07667615971173        0.13867553863954       -0.19894670662334
H            6.29838769935003        2.08159415526779        0.67734361499869
H            5.41630707860249        3.33244361208453        2.58151713870695
H            4.92054361465648        3.76190146417959        4.57782413573312
H            3.57731427300758        3.99241637113292        5.66803471623535
H            3.60619732233030        4.85452464399510        4.12513843853505
H            1.49941227737184        4.02453921087583        5.54136532588857
H            0.26756305884542        0.67021443855642        4.93945969693423
H           -1.77057537153766       -0.27895376233695        5.96226460469390
H           -2.35278743052875        3.33571132460486        8.12620364802530
H           -0.32077656628405        4.27873356690724        7.10339138994195
H            2.07164378087504        0.71094235000657        2.76515546068060
