38
 energy: -5.909469260368 gnorm: 0.000590706606 xtb: 6.5.0 (97a52f5)
C            2.44939951064599        0.61852366529650       -0.14363365199378
C            3.07094568247604       -0.11184611452105        1.03442675445739
N            2.60922461202209       -1.55498584195170        1.23675424045594
C            1.08840080517775       -1.64938772445975        1.30882835247676
C            0.51174215089683       -0.93634468754266        2.51303355797534
C            3.06644290696713       -2.39791741196251        0.03972896756817
N            3.78198061362995       -3.46406655610618        0.72391707552119
C            3.82326872106895       -3.21310293365245        2.07904237455642
N            3.18918491342792       -2.09876763274125        2.39776392578071
C            4.48791274120045       -4.13021832446698        2.95419752273272
C            4.60641602456444       -3.92410300236533        4.41919342696524
O            5.16458374131219       -4.77963682587489        5.08187394060273
O            4.08990413016257       -2.78738338977807        4.94624174732491
C            5.04012800909663       -5.24745743613600        2.39932549980631
C            4.98440460875424       -5.51666279735724        1.00674164310378
C            5.55116351568104       -6.67384476586524        0.44975833015894
C            5.48582357129893       -6.90114445925619       -0.89677880087130
C            4.85722624518859       -5.98562186750759       -1.73809448509188
C            4.29489785692968       -4.84923714823157       -1.22751681190422
C            4.34286498283126       -4.59234623075408        0.14828802003585
H            2.89617856111836        1.60496143944560       -0.28443202557872
H            1.37895147387394        0.77263876322141       -0.00409973832630
H            2.58000765207422        0.06715407015972       -1.07510952736616
H            2.88132160405465        0.42599346682419        1.96641756336960
H            4.15984240748321       -0.14298537169629        0.93757105893225
H            0.84398223746456       -2.71458889185884        1.35965072830871
H            0.65203800560400       -1.27937725821237        0.37818144321084
H            0.98972050075688       -1.28229762983331        3.43025987230536
H           -0.56189972804168       -1.11018713092304        2.61210123780571
H            0.66261400323620        0.14194982052079        2.45441194941393
H            3.74719977907641       -1.85422021298958       -0.61521123151974
H            2.23122222422303       -2.79839727138446       -0.53532350589975
H            3.69119033147269       -2.26955979922438        4.22094664206836
H            5.53663449091129       -5.94725949587326        3.04847262283384
H            6.03881520301193       -7.38363284757010        1.09572016584916
H            5.92391073386774       -7.79437396913536       -1.31256421407460
H            4.81549460203074       -6.17644577184396       -2.79824720597375
H            3.81200057444940       -4.14249042439043       -1.87886746501874
