37
 energy: -7.071634057147 gnorm: 0.000903056583 xtb: 6.5.0 (97a52f5)
C            2.01435343024532        0.97127865513703       -1.10682130230215
C            2.82841000794358        0.33602989066591       -0.00209534641364
N            2.47731655426314        0.84571739454631        1.39279720275404
C            1.06515080313551        0.40284698137734        1.80183558386836
C            0.00137521277012        1.42624271096884        1.46427972748228
C            3.46890170533811        0.17963688388784        2.36015238136398
N            4.04169586148264        1.35417077631658        2.99476446607745
C            3.51356392880648        2.50322377363080        2.43072208518978
N            2.63129240939968        2.23846496832528        1.48910501483942
C            3.93699943073401        3.78465868262043        2.90453311538077
C            3.40772770765239        5.06628615679601        2.33961563539968
O            3.61625549619510        6.08832581437055        3.00600883986123
O            2.81372357283754        5.03183284275029        1.25618710665502
C            4.85052672750424        3.82146488305158        3.91328569961688
C            5.39716542766886        2.64304897332083        4.49462557746559
C            6.34079286534452        2.69468153316568        5.53178304449342
C            6.84959522315213        1.54291200239056        6.06848848293363
C            6.43711411032610        0.29998662889161        5.59218641848021
C            5.51752101307375        0.21655813107019        4.58268733562943
C            4.98029693928661        1.37904033726339        4.01645362155096
H            2.43027521624554        0.75571199666238       -2.09321863136087
H            1.98574758717679        2.05580488796190       -0.99039637683191
H            0.98644513367763        0.60813152499270       -1.10970468752115
H            3.88812224645953        0.56051816811433       -0.15526820448104
H            2.73869303587161       -0.75363096996624       -0.01709298304739
H            1.06420506133061        0.23967158858177        2.88316451742801
H            0.84909836339506       -0.56847505062933        1.34922073529557
H            0.24120988621342        2.39065403591780        1.91484186660271
H           -0.98457665182106        1.12622291981009        1.82418054133320
H           -0.08183055961564        1.59333858331332        0.39201802277985
H            4.24210441791483       -0.38519278711833        1.83874368205196
H            2.98213796860035       -0.46540585926039        3.09191750020009
H            5.16740712725666        4.77937269590801        4.28426673407516
H            6.66125088154988        3.65348954615684        5.90056502351014
H            7.57407364688782        1.59512570381068        6.86454898193453
H            6.84610737785962       -0.59919308748951        6.02254324195624
H            5.19935083384043       -0.74230191731402        4.21403534575470
