38
 energy: -5.422051226370 gnorm: 0.000674730894 xtb: 6.5.0 (97a52f5)
C            2.34036529351422        0.53213237305006       -0.20048778923485
C            2.81210955773001       -0.02126799695886        1.13280056822028
N            2.47110936096426       -1.48730302626224        1.40108511254752
C            0.97613242905937       -1.74767334259690        1.24725474375044
C            0.14389690432007       -1.01874951276269        2.27980316676844
C            3.20013787473332       -2.36072492167193        0.37368836052639
N            3.91436975071218       -3.26403513109116        1.26061322454824
C            4.68462871094348       -4.34271277413558        0.91548667182381
C            4.85007677526104       -4.73171808304983       -0.50328764557140
C            5.25262135389755       -5.06447108669657        1.93082968286301
C            5.09462286164097       -4.72837008773609        3.29194831468673
C            5.79001565305102       -5.56966573695432        4.30328493902219
C            4.33302975121956       -3.62883307879709        3.65847198688337
C            4.17691224581731       -3.22603147117674        5.07733883682154
O            4.70277058224397       -3.88256296795550        5.95827601466051
O            3.44252742225456       -2.11257853970779        5.35125224303776
C            3.70277702550994       -2.88943645276529        2.59534873925413
N            2.90647645990660       -1.86481171043375        2.68635177433850
H            2.69117847078306        1.55440212025321       -0.35605928439336
H            1.25230884975819        0.55667259645640       -0.26514484227153
H            2.70279790110434       -0.06528962293005       -1.03727611754997
H            2.40607454664444        0.56565953709555        1.95977936073480
H            3.89821433876127        0.06724770975553        1.22390080109254
H            0.83336695908293       -2.82690614619481        1.35430592105027
H            0.66228033533262       -1.49749779190929        0.23136080481213
H            0.49363079656069       -1.24764259152754        3.28713543372500
H           -0.91012097841544       -1.29874859193245        2.22359840406349
H            0.20041072790390        0.06281728794282        2.15433660299484
H            3.90851407855397       -1.78996121594619       -0.22588117494969
H            2.51674444493434       -2.91026134209918       -0.27383281933629
H            4.89392972195197       -3.85287843740169       -1.14601793988435
H            4.01609029405971       -5.35265532303799       -0.83122578199860
H            5.77182723892633       -5.29465905018838       -0.65271860588519
H            5.84970437134634       -5.92248141662604        1.67938813173885
H            6.14982866428185       -6.50508178366619        3.87465560262806
H            5.11580439543520       -5.81359615530673        5.12522618640213
H            6.64181435957197       -5.03418815000115        4.72339846024689
H            3.11352047064352       -1.74995808503080        4.50803191183433
