88
 energy: -17.353327902365 gnorm: 0.000543808516 xtb: 6.5.0 (97a52f5)
C            0.85619857913159        0.60776624377761        0.97510920158299
C            2.27035108819958        0.23324606996343        0.58962679647865
N            2.91259194433123       -0.60546918974640        1.61250802448469
C            2.79184505950027       -1.98642133101617        1.70914875991941
C            2.07931584821972       -2.76511304031252        0.83285310632069
C            1.95249400953792       -4.15946909474442        0.87688304580399
C            1.21016642240689       -4.87037969019974       -0.03943449161447
C            1.09337728890508       -6.25411338126055       -0.02506226183892
C            0.34547023126052       -6.96251093515495       -0.95619213846025
C            0.24910351824610       -8.33611252624694       -0.97140614455970
C           -0.50504736428457       -9.03085852843653       -1.92584599802431
C           -0.60668010191359      -10.39328202246190       -2.04977128530892
N           -1.37117816844884      -11.03568668624848       -3.01565891361718
C           -2.16016798941667      -10.35483474702338       -4.05162451586935
C           -1.30362337036023       -9.93534304431901       -5.23630504554143
C           -2.08314315574875       -9.14633452074766       -6.28729166881882
C           -1.21735957095823       -8.69750125548833       -7.46390659515510
C           -1.98020324079986       -7.85948619208765       -8.48409686166322
C           -1.11508948653417       -7.39381339275461       -9.63090633986294
O            0.09098942560528       -7.51940305652936       -9.56665714862059
O           -1.76766308545859       -6.83266454439874      -10.68755270246393
C           -1.22880857324944      -12.44225751713084       -2.96832755861323
C           -1.77338940024034      -13.43550156613242       -3.77412218627475
C           -1.45324179771071      -14.75145409766554       -3.50991731125572
C           -0.60654661181159      -15.07641681644015       -2.46665136669981
S           -0.21341164107079      -16.81176852474492       -2.15930194488262
O            0.65908907186961      -16.81679091556335       -0.94851233006827
O           -1.54298783296661      -17.45533841534708       -1.94658757529017
O            0.48455726152685      -17.25088513330729       -3.40345288489304
C           -0.05978902845449      -14.09505789363221       -1.66514981110974
C           -0.37135398663462      -12.77460900756293       -1.91727385970790
C            0.09194753890517      -11.48984487929204       -1.22997606572387
C            1.62067053363535      -11.37728121822337       -1.33096171062050
C           -0.38511703702767      -11.48173797936679        0.22938409500553
C            3.57775552385422       -2.41808885432215        2.95804489737123
C            4.76635941613551       -3.31717186998480        2.58834038298003
C            2.65909717418144       -3.08436074690139        3.99294420680203
C            4.09264006025121       -1.08974532881442        3.51184078729517
C            4.84769073742425       -0.81280100491977        4.63345813004592
C            5.16785580700673        0.49929480513680        4.91524668930542
S            6.15741627180915        0.86104587791042        6.38150544547738
O            5.28224787543090        0.44780459396844        7.51757278702854
O            7.38033450860852        0.02192782520809        6.21442048076715
O            6.42504133181534        2.32843502445186        6.33065104094151
C            4.73995881264578        1.52706943711983        4.09521941508828
C            3.98390484247239        1.26509786401613        2.97151894134690
C            3.66280195707790       -0.05519423470389        2.67811306365378
H            0.37527800126076        1.23287187380518        0.22020751779373
H            0.84311970307444        1.15419921129304        1.91905881582825
H            0.24059287715378       -0.28189999013010        1.11335595106527
H            2.88725594548835        1.12508940010476        0.44021440469449
H            2.29700674163328       -0.29966456725877       -0.36601905094122
H            1.56653828317498       -2.26315325923533        0.03256461356509
H            2.45775501273006       -4.70890224314109        1.64800956721939
H            0.69774360942289       -4.32609312187621       -0.81364944393918
H            1.61440098775597       -6.80422049831137        0.73875232932100
H           -0.17832348328664       -6.40633167124024       -1.71421537225738
H            0.78072594852775       -8.88624794505370       -0.21861478108780
H           -1.04477736567543       -8.43145195740216       -2.63640512256993
H           -2.65481335853638       -9.48944875393147       -3.60221448391948
H           -2.96799298473082      -11.01723524467311       -4.37382554098645
H           -0.85025381525338      -10.82291027195009       -5.69232348179448
H           -0.45725782382294       -9.33798284024631       -4.87878595104962
H           -2.54427486470809       -8.26935538852335       -5.81767679599876
H           -2.92261779298646       -9.74870977979353       -6.65404927468306
H           -0.78033257200931       -9.57123022083115       -7.96138877311926
H           -0.35930642308165       -8.12305271539612       -7.09542260679120
H           -2.41664928081362       -6.98501384029199       -7.99195841673858
H           -2.82234214446643       -8.43621224968434       -8.87822059570779
H           -2.73376162807603       -6.81293969980290      -10.53735763021404
H           -2.42421491475136      -13.17676070332877       -4.58954422516375
H           -1.86087652473370      -15.54177338278930       -4.11855359091859
H            0.60028654097793      -14.35764315857909       -0.85771169914406
H            1.93343137836572      -11.38639026080315       -2.37437177240346
H            2.10310821879818      -12.21463777941536       -0.82851235215825
H            1.99081709504083      -10.46027168601499       -0.87821157817068
H           -1.46967353022521      -11.57279279505102        0.27464911798778
H           -0.10462446657400      -10.56313953884650        0.74016356221482
H            0.04556356110314      -12.31635155507412        0.78100824503943
H            4.44088305927982       -4.26352744674758        2.16230936495419
H            5.37141826196971       -3.53734056214401        3.46686652396914
H            5.40403249455135       -2.82164941604822        1.85735870393328
H            2.24419053478550       -4.01948833529481        3.62354500748698
H            1.82904398333136       -2.42492227721003        4.24347130243996
H            3.20447010523269       -3.30098666489629        4.91053945250138
H            5.18232975776643       -1.60610155436417        5.27845192660951
H            5.00636272043193        2.54015290542323        4.34662880862929
H            3.64350745502150        2.06124542652748        2.33443474323423
