62
 energy: -10.949012330534 gnorm: 0.000246798966 xtb: 6.5.0 (97a52f5)
C            0.19478404423415       -0.64419784208941        0.88054936530237
C            1.64673357113646       -0.55811255450496        0.46482603053210
N            1.85795554585367       -1.09999721950936       -0.88761513499027
C            2.02625781965177       -2.40379246622121       -1.21239426247061
C            2.10166118642435       -3.43301756536132       -0.27527104583048
C            2.26228821597209       -4.76930909864415       -0.53008670453070
C            2.38566320143571       -5.72183070759780        0.49796426128478
C            2.57477925697069       -7.12961350037439        0.37385002495890
C            2.63168080844397       -7.87013882878905       -0.90759078423772
N            2.69874187830337       -7.69342756224042        1.54877411637663
N            2.59731894942792       -6.71119044362236        2.47622109330271
C            2.68581790785439       -6.78741041274027        3.86560110973472
C            2.95272662048034       -8.04848670215513        4.54761985921117
C            2.99265418892671       -8.14920256311198        5.94300471202951
C            3.27353112012573       -9.33985096027313        6.56043465010671
C            3.53157439081176      -10.50125326691649        5.82418373558381
O            3.81830921822110      -11.66472274953886        6.53457988676516
C            4.09380065307907      -12.79376256107422        5.73887550316937
C            3.48365335306669      -10.40671261066336        4.42950216957373
C            3.20103070864675       -9.21371046610668        3.81980380182378
C            2.53069479667594       -5.59025438493963        4.52456029517927
C            2.31248595112259       -4.41205962217748        3.82383029687455
N            2.24133406583383       -4.30412391028259        2.51971055816297
C            2.38978935329239       -5.47262695578291        1.88693664994907
C            2.13828658121007       -2.49756917709901       -2.74215322145921
C            0.98629957294431       -3.32181687292395       -3.33722699783640
C            3.51055257230044       -3.04224275320397       -3.16631466030463
C            2.00239276304130       -1.03950879966162       -3.17498468244119
C            2.02267302511214       -0.46169198727311       -4.42709402487984
C            1.86143334121499        0.90729848602878       -4.53410483069839
C            1.67864752771593        1.68694976618882       -3.40384817410064
C            1.65748590189505        1.11544449185498       -2.14935917710163
C            1.82410463172616       -0.25716183885605       -2.03682030631657
H            0.02912284369429       -0.24468139970520        1.88267710741075
H           -0.15242065351773       -1.67787966403814        0.87116376532143
H           -0.43975445467033       -0.08848699207094        0.18911761798655
H            2.29508854631941       -1.09673461401777        1.16216110179691
H            2.00088895305530        0.47673969079524        0.48173782400123
H            2.04463236975993       -3.14741620045958        0.75767019103222
H            2.31518276239120       -5.11792563551160       -1.54298363014557
H            3.47301821600713       -7.53464541154914       -1.51348587174514
H            1.71553696772263       -7.72654919779010       -1.48015373637332
H            2.75128063938145       -8.93766409249118       -0.72554270850897
H            2.79837009368996       -7.28270854275168        6.54801923055303
H            3.30541952646026       -9.40544178255034        7.63357677999399
H            4.31570699016983      -13.63324262203179        6.39929995671193
H            4.96236470646767      -12.59922503345181        5.10791127161717
H            3.22179662760052      -13.04061276656211        5.13155550485650
H            3.67096169710071      -11.27719867870991        3.82803073076309
H            3.17130239405074       -9.16554997045049        2.74948570403978
H            2.59044352240419       -5.55306747064431        5.59654499958887
H            2.19748795824411       -3.49172539383694        4.37848433681748
H            1.02269600991794       -4.35945760788757       -3.01420083793968
H            1.02486338197144       -3.30935374549355       -4.42537920439779
H            0.02665268222157       -2.90826987376448       -3.03034109779229
H            3.65185238862396       -4.07128093541225       -2.84393422105282
H            4.30775872385451       -2.44144317683777       -2.73084300211542
H            3.62037127652242       -3.01296684643799       -4.24921342468086
H            2.16203048244438       -1.07377244374736       -5.30054951947464
H            1.87710743496510        1.37133102848775       -5.50631901169038
H            1.55240244503477        2.75216916741602       -3.50587761624710
H            1.51141274494185        1.71817385116555       -1.27145635282151
