81
 energy: -13.940712111464 gnorm: 0.000384685357 xtb: 6.5.0 (97a52f5)
C            4.61525633656662        0.08958922025172       -2.29531532823752
C            5.93425451019561        0.08063742517800       -1.55541794939301
N            6.81539056352637        1.17659374820508       -1.98930000037673
C            7.66733007157221        1.14234598292742       -3.06130114394422
C            7.80838590963518        0.05066683742050       -3.91052425548439
C            8.69640009754798       -0.04120499053450       -4.95952468470611
C            8.78968217990311       -1.12866985215198       -5.87108113775003
C            7.82663332909283       -2.13156049741773       -5.88041988075007
C            7.84923713458757       -3.19994129071453       -6.79680011922521
C            6.85421288997364       -4.19016351570023       -6.81154050735485
C            6.86787830702811       -5.23306510501628       -7.72310618978657
C            5.73686358052512       -6.27378406852727       -7.69342323949161
C            5.92074995964503       -7.35144846240610       -8.78006702448286
C            5.71899160430420       -6.96870607104139       -6.31905227519628
C            4.38982951002128       -5.56675866697812       -7.93527307864918
C            7.90757629743668       -5.29498980055406       -8.64309486617553
C            8.92780414635750       -4.33627376960699       -8.67455464025049
C            9.99618791236452       -4.39686374155809       -9.61548147181508
C           10.97083329600232       -3.45562469776105       -9.62806343302178
C           10.96243902049524       -2.36964888447563       -8.70479871945307
C           11.96516160379461       -1.39455994567922       -8.70478972386661
C           11.95698414795342       -0.34571064766616       -7.80276384576177
C           13.05943332126968        0.72551618192575       -7.77753682111458
C           13.76838165924113        0.69275607843195       -6.41041178029243
C           14.11325113736346        0.48914801563133       -8.87722271821648
C           12.42804417798495        2.11268919438855       -8.00145212081969
C           10.91648395124504       -0.26925270179792       -6.88377310461122
C            9.88018966826893       -1.20311882682990       -6.83537175901293
C            9.91335429958856       -2.27718131622429       -7.75987749889138
C            8.89822493667741       -3.27269142428457       -7.74581382213447
C            8.35241803377075        2.51668215624671       -3.14856457524946
C            8.04588703663700        3.20842265953845       -4.48555334073948
C            9.86366809111587        2.40928224770309       -2.89518956482940
C            7.69650398447565        3.29081656370341       -2.00569868942002
C            7.85593402012510        4.59627019198682       -1.59080726560511
C            7.11151472225337        5.05343592606789       -0.51754364123074
C            6.21678813948430        4.21552138274506        0.13023554672901
C            6.05057038633539        2.90978441451297       -0.27976792707597
C            6.79865021713467        2.44527013738937       -1.35398557039571
H            3.95717278773736       -0.71935069007189       -1.97258817857599
H            4.76898611864036       -0.01389012083961       -3.37001916648377
H            4.08837516234360        1.03146083758442       -2.13795525994631
H            6.46339222714946       -0.86721615430131       -1.69418342983448
H            5.78049995966855        0.17067332125916       -0.47563743938621
H            7.17421956346582       -0.79199509760966       -3.71563321925683
H            9.36777538600584        0.77972096369738       -5.10486773733054
H            7.00572184328474       -2.08809058704934       -5.19106956836275
H            6.05857665119497       -4.12470334607645       -6.09259359025564
H            6.85476891785976       -7.89391340672206       -8.64045155524159
H            5.92081487280021       -6.90879767396928       -9.77518679190488
H            5.10994926586624       -8.07788640049532       -8.74375745199080
H            6.67273777350216       -7.45662644824558       -6.12279902627182
H            4.93711943505352       -7.72574095933850       -6.27573917697482
H            5.53637758910859       -6.25585270093353       -5.51688944013542
H            4.39458280669920       -5.04860058563991       -8.89326611205435
H            4.18272731779001       -4.83250034623920       -7.15873591588378
H            3.56952086075886       -6.28319710882927       -7.94279048579555
H            7.94562784061174       -6.09311701514143       -9.36002204975383
H           10.01797014812071       -5.20918310161273      -10.32071605787208
H           11.77231961006117       -3.51691156284617      -10.34336993842590
H           12.75479050185231       -1.48143016255924       -9.42703293217481
H           14.20058340670771       -0.28965098654602       -6.22522408964364
H           13.07596990436211        0.91170552505676       -5.59944953441130
H           14.57096495443959        1.42792911304084       -6.37011588209174
H           14.60719303922708       -0.47272525133592       -8.74695290331541
H           14.88222048445411        1.25998934379025       -8.84636504803714
H           13.65968054220763        0.51612487087896       -9.86703175901518
H           11.71795025218746        2.35761460937722       -7.21359824156039
H           11.89770458078445        2.14439659357468       -8.95221092376930
H           13.19074596018392        2.89009533654774       -8.01409281699435
H           10.92891923726051        0.53784106216582       -6.17823054548949
H            8.46273795181317        2.66221602188026       -5.32866948402656
H            8.45957944181398        4.21557344007831       -4.50324979690458
H            6.96979309222790        3.28462475491520       -4.63512453444658
H           10.36751948043002        1.84235883044195       -3.67423840278185
H           10.05482946681294        1.91499783446720       -1.94379129923990
H           10.31856769852394        3.39801634137813       -2.85689593212384
H            8.54848034454894        5.24219739681116       -2.10097576009820
H            7.22719318083311        6.07144917741855       -0.18431832070473
H            5.64347268903128        4.58948669497682        0.96239941031293
H            5.35190746103892        2.25920754970007        0.21434855631049
