57
 energy: -10.374587476761 gnorm: 0.000271740867 xtb: 6.5.0 (97a52f5)
C            1.60992199466808       -1.15340113731835        0.52066653345587
C            2.97969507368688       -0.51431417654359        0.46318562017911
N            3.21903975524669        0.36742118116467        1.61788719923371
C            3.65123106416964        0.01262121573265        2.82653707272938
C            4.01948150890391       -1.31859352129349        3.17934991248166
C            4.43077161741853       -1.72981217350957        4.39558204278966
C            4.83981442802457       -3.08294883159583        4.72102971062685
C            5.12057344956230       -4.02885692130191        3.73291042661694
C            5.53672382419258       -5.31641556062379        4.05320407871759
C            5.84090866211962       -6.29210672526014        3.05041528557055
C            6.24880210004065       -7.53498208415850        3.38345426420807
C            6.39310371172553       -7.92710459491414        4.75220086955559
C            6.81310155391524       -9.20345779869856        5.12353167004424
C            6.94228596456758       -9.54417664538535        6.45342616145622
C            6.65957738234219       -8.63086037700565        7.44708528739142
C            6.23668626866753       -7.34087330215026        7.13015123470870
C            5.93619169742751       -6.36433956299478        8.13222649593417
C            5.53345353487498       -5.11992729300934        7.79862738294687
C            5.38900126509656       -4.72807812985681        6.42907696965096
C            4.98352789897806       -3.45039897793146        6.06032155560329
C            5.67257994446253       -5.67417428786018        5.41568162698249
C            6.10088772067007       -6.98466132311919        5.76701061396012
C            3.69351250257982        1.26953910881307        3.71158568706943
C            5.12459936533495        1.57466185778994        4.17889899036648
C            2.71626292826879        1.15890404065486        4.89247074161190
C            3.21533769660683        2.36055038741691        2.75859659094095
C            3.03773559031581        3.71595890437578        2.94509070557032
C            2.56701188834808        4.47791184910811        1.89239375658206
C            2.27484869207234        3.89082842243187        0.67269597678169
C            2.45106930078019        2.53608260430136        0.48193585980254
C            2.92844839980140        1.76935656508543        1.53343414767425
H            1.42353850058263       -1.80531638293712       -0.33462481611237
H            0.82801020087195       -0.39346560875550        0.53844183515932
H            1.49568434383494       -1.74968974343976        1.42642152163366
H            3.10294091268446        0.07220686901377       -0.45187446997276
H            3.77104421398165       -1.26908834779609        0.43124423815655
H            3.94714025044059       -2.05324462713577        2.40101183160658
H            4.46344055155753       -1.01943730391488        5.19897235236108
H            5.04153636757556       -3.75967372357988        2.69684379007030
H            5.73973196634885       -6.01433915093722        2.01584121674010
H            6.47470993464010       -8.25459198164223        2.61618844691527
H            7.03728328320986       -9.92430410514825        4.35670903632895
H            7.26855133549876      -10.53602307211133        6.71944508033823
H            6.76452159824160       -8.90788952251557        8.48154681859064
H            6.03889556653202       -6.64128464365269        9.16679787682934
H            5.31266934557264       -4.39825193955891        8.56551661679070
H            4.77051993550478       -2.72873296593002        6.82770418546531
H            5.51005518299350        0.79510908051084        4.83203730375227
H            5.16033956743799        2.51609126097410        4.72477544011789
H            5.79329570051883        1.65643602769088        3.32327456214109
H            3.00118490137067        0.37024564221196        5.58433408291394
H            1.71102671726584        0.94322402922324        4.53333988690659
H            2.67967823336590        2.09328826492742        5.45035779151071
H            3.26341283147401        4.16277826442912        3.89708390031136
H            2.42471209656361        5.53780181186091        2.02320090572109
H            1.90579420959307        4.49902578032558       -0.13652692673945
H            2.21947546745858        2.07822337553756       -0.46248697877495
