30
 energy: -6.388417146348 gnorm: 0.000645341639 xtb: 6.5.0 (97a52f5)
C            0.92554830362618        0.25878900528456       -0.16996245279072
C            2.40017549445030        0.18938927139342       -0.02338906903289
N            3.02434436661313        1.01589313785535        0.75841163996677
N            2.41912518354195        1.87621187914138        1.58506784818314
C            3.11176112316900        2.87599850055601        2.28407049623313
C            4.45962126723264        3.09363386605649        2.02174993834587
C            5.15514810875738        4.07185320884256        2.69036150175319
C            4.52206633272017        4.86385090169586        3.64409202307381
C            5.22999728623713        5.86442738607499        4.32698053046412
N            5.81742519165196        6.69219528009180        4.89115655137874
C            3.17254076650072        4.64435593870590        3.90694321598670
C            2.47581154948067        3.66604350885211        3.23860314950661
C            3.17782626893281       -0.80025693402135       -0.74752900632526
C            2.54619501918884       -1.79441552755505       -1.50004981951619
C            3.29440041425221       -2.71891496721499       -2.17624544292182
C            4.66269314984885       -2.63452561679245       -2.08559320396984
C            5.21109291455456       -1.63273360872384       -1.32060701084373
N            4.51729137126154       -0.72730946011498       -0.65662365089420
H            0.55188911206574        1.24894668147719        0.08789476010060
H            0.43454160628065       -0.47129016674445        0.47394312895551
H            0.62161375444650        0.07253371348168       -1.20016422377675
H            1.47456927553568        1.65196136726537        1.89181971431837
H            4.94343493284221        2.47641744468075        1.28579807213496
H            6.19886523964322        4.23666776754985        2.48379534835098
H            2.67963269056996        5.25567983903353        4.64356944872076
H            1.43242304553044        3.50287584683921        3.44424471925986
H            1.47263707367673       -1.84639088302340       -1.53607799258264
H            2.82555120468530       -3.49318579753430       -2.76148429668619
H            5.29206787556083       -3.34129277230197       -2.60118088872198
H            6.28546007713875       -1.56125881085177       -1.24101502867197
