57
 energy: -10.374825621568 gnorm: 0.000654490749 xtb: 6.5.0 (97a52f5)
C            1.06981162709539        0.33027797399754        0.54995171065589
C            2.52485362249309       -0.07186983636292        0.64435223548604
N            2.93556908993740       -0.91179295815774       -0.49265544139587
C            2.81717010160235       -2.23368814278944       -0.60170901554115
C            2.25031888200395       -3.06451477810295        0.40868628167265
C            2.13196491016591       -4.40620566499712        0.35433227213651
C            1.51652279029664       -5.23498015934324        1.37215457211743
C            1.36919489581414       -6.60317125403476        1.13529761050595
C            0.76520744121597       -7.44616754182609        2.06120753508330
C            0.59775420422054       -8.84819843982504        1.82443957832282
C           -0.00025241774364       -9.64564795677006        2.73468345049039
C           -0.48863183463566       -9.12148971498889        3.97353420049870
C           -1.10891344722766       -9.92237718200834        4.93122485583785
C           -1.56348251141953       -9.38150383383070        6.11538030943256
C           -1.41535747510446       -8.03639131674558        6.38047299266871
C           -0.80298222652212       -7.19124175820988        5.45627407691244
C           -0.63097651259820       -5.79058253250543        5.69438734474782
C           -0.03720719042189       -4.99312687560035        4.78130590427812
C            0.44457790715881       -5.51651462654006        3.53873573574450
C            1.05203780341004       -4.71187290785994        2.58085248025752
C            0.29374520424840       -6.89905719570659        3.27788196501081
C           -0.33446263525474       -7.73963022253502        4.23848442688789
C            3.34956721690647       -2.65275640431521       -1.98246941931757
C            2.25343451674880       -3.32115276048807       -2.82697263845142
C            4.59594754396071       -3.54160129965160       -1.85490512883010
C            3.73355274330099       -1.31498864676849       -2.60788422228110
C            4.23314725309674       -1.00466467669339       -3.85595632880134
C            4.45897725838919        0.32158791734263       -4.17319109636154
C            4.18422788070212        1.32255974574217       -3.25646409376345
C            3.68427614622316        1.01692879611148       -2.00773432724149
C            3.46437719103111       -0.31245725257333       -1.68306970885978
H            0.76122773450833        0.95716053508426        1.38843434294976
H            0.42271369268051       -0.54724834600783        0.53282162303866
H            0.87959794683777        0.88444971732341       -0.36977942082233
H            2.72871550430935       -0.61728888454767        1.57073176053640
H            3.17620176976100        0.80666543828199        0.67624981755896
H            1.86681845583322       -2.56031535499860        1.27399078008629
H            2.50614501219611       -4.92124327190560       -0.50918240214420
H            1.72343384281235       -7.01597320934855        0.20842918775806
H            0.95947900183291       -9.25937856262868        0.89829850433710
H           -0.11832432100628      -10.69701306714912        2.53903437795510
H           -1.22985400663240      -10.97349176871180        4.73530634330169
H           -2.04033690255697      -10.01777046998378        6.84252109674803
H           -1.77332899626864       -7.62544627404102        7.30826519415267
H           -0.98752230253674       -5.37908696370689        6.62234046017454
H            0.08231705582243       -3.94188029938876        4.97709441882785
H            1.16251993623535       -3.66550282273926        2.79136842205205
H            1.93325405082427       -4.26824087202153       -2.39947046973641
H            2.61009748477694       -3.51638038529582       -3.83705614471084
H            1.38148656331670       -2.67263165136723       -2.89812708192782
H            4.36863378732026       -4.49038360773814       -1.37461211513112
H            5.35986672456779       -3.04039307005843       -1.26233259207635
H            5.01839090521058       -3.75613518665998       -2.83528761128719
H            4.43570813838717       -1.78773403200670       -4.56489221820963
H            4.84712794904127        0.57854069505248       -5.14479822843384
H            4.35990582516134        2.35179242265769       -3.52255233432119
H            3.46065516848522        1.79250079793047       -1.29793382856379
