98
 energy: -10.808901790721 gnorm: 0.023133469201 xtb: 6.5.0 (97a52f5)
C            0.36981628184248        0.26829847862726        0.64658404947204
C            1.85342964928717        0.56810761489288        0.58891809968472
N            2.63918578946760       -0.33399521885283       -0.34977633017248
C            2.19911254904276       -0.18597356613365       -1.80834151739147
C            1.19780423265478       -1.23176252777734       -2.25620150026548
C            4.08170128184237       -0.22084042098455       -0.17930057969532
C            4.83839558473355       -1.34156237281317        0.12633970271774
C            6.20551411505337       -1.24904748830364        0.24956577511740
C            6.85481259387126       -0.02916408262952        0.06533398400464
C            8.26310072096738        0.06194972174685        0.17092794198017
N            9.05909853445281       -0.84173400406725        0.67520343512040
C           10.31188292122433       -0.51501449576307        0.45839295762965
C           11.42383423325986       -1.17206134223251        0.83294542234887
C           11.51420809014201       -2.10074403095309        1.73099234637293
C           12.72904340469153       -2.61398328306775        1.78483150069135
C           13.77627223412763       -2.50640990962222        0.90592540463095
C           13.76144123694210       -2.67680834665369       -0.41463702520310
C           12.73822208907060       -3.04965945883934       -1.15777444903069
N           12.66925211514720       -3.23990843270524       -2.44243397020059
C           11.65214833742328       -3.62892301768704       -3.30147170524175
C           10.73260328427994       -2.78856525002010       -3.94168028728256
N           10.14547674097667       -1.59441415403930       -3.89447343567553
C           10.43362585945896       -0.74995169727128       -2.87119625762062
C            9.28597905656293       -1.19595520655339       -4.84322864484083
C            8.77946824328741       -1.72952071643268       -5.99975226633497
C            9.16906060377119       -3.06151015567800       -6.45518636805929
C            7.93759170380048       -0.96238374620499       -6.73795107684062
B            7.35750474902129       -1.20046913351981       -7.99066614552708
C            7.58801375373280       -2.25795370821956       -8.90376044975583
C            5.99462037221086        0.76807920332119      -10.91690189240672
C            6.87258663995531        0.56301002268047      -11.83566858872052
C            8.12319108640186        0.09101011501725      -11.67656945480661
C            5.52687145293840       -4.32594134355030      -15.19228917063543
C            6.36736256589036       -5.23391419704844      -15.02710427940353
C            8.14398559094596       -6.11863952322606       -8.71647122272636
C            4.94013630797762       -4.61037388818324       -7.43036376099741
C            5.65106395147517       -4.24208638646982       -6.44036606560381
C            3.34831351642559        1.44130678126856       -6.34369631356871
C            2.88011983808511       -2.20913390225244       -9.68242565113380
C            1.93320182585525       -2.84881331011299       -9.20972613426935
C           -0.45816922719556        1.78339513505825       -8.13139464482935
C            0.45546862526345        2.66100371612706       -8.31904140685180
C            0.36617084701168        3.73423374012658       -9.02177140968442
C            7.58929885247905        2.92658850280304       -7.77454395226556
C            8.37650144683774        2.23035745907041       -8.54061923463305
C            9.68114209030947        2.20342228636726       -8.42213804786991
C            4.19500675409353       -0.58100910520874       -3.77885345406282
C            5.34599758333092        0.10204507732858       -3.88485047712835
C            6.08774801138217        1.09391675436844       -0.24770622943646
C            4.72053206679371        0.99417751923060       -0.36751362859798
H           -0.13613088775447        0.86853991678169        1.40560000941249
H            0.18727429401843       -0.78047879252833        0.88502183126122
H           -0.11770016261997        0.48036297828063       -0.30542644195480
H            2.29758791541748        0.47567470438959        1.58666923284963
H            2.02524344000321        1.60594375104325        0.28816854982172
H            2.31477996257989       -1.29406342342124       -0.09015709931963
H            3.09867880067092       -0.25653045773844       -2.43161810823495
H            1.81585095263835        0.82742180325213       -1.96230996942264
H            1.60792300659793       -2.23691959005133       -2.14814658877858
H            0.92225865488293       -1.10417293101375       -3.30483093664713
H            0.28028846047691       -1.19471870477913       -1.66981706657430
H            4.34775843463971       -2.29107962295642        0.25581715331748
H            6.79289508958843       -2.12134818999714        0.47950061859563
H            9.92945481102616       -2.91774811949195        1.81619715535693
H           11.33672770073585       -1.11312627980710        3.42247940330342
H           14.92832013339923       -4.21710492243286        3.86985384112546
H           14.12392430554018       -5.60828891400003        1.01422135637574
H           13.07810079537053       -7.97543146252525       -1.04346632888996
H           13.74576312786804       -6.91541926059049       -5.44153639808655
H           10.25074344087851       -4.96658101094890       -1.74204501178715
H            9.41014944424408       -3.72364414338758       -5.64862721389833
H            8.41439225224568       -3.52462652796774       -7.05689885166749
H            4.78002208761724        3.53296625973137      -10.18106473058254
H            3.40838840653034        2.32502674787343      -13.04953737686590
H            9.63768650406988        2.74786183456838      -12.34728215420469
H            6.14749323345460        0.31855509637884      -15.02050477221995
H            7.96839655281360       -2.56653318781059      -16.80035957145270
H            3.38345667635283       -4.88766747286500      -12.96291591845539
H            9.21557045369739       -4.84713112629665      -12.47236419520287
H            4.37317479800062       -8.25494188948981      -10.73813486039474
H            7.48301581129298       -6.86506179370577       -8.48057111054483
H            3.85334271883697       -2.19749940580411       -4.30568808845243
H            6.99728041113464       -4.12583690714116       -4.36196143647860
H            4.40126220966697       -3.94019531652232       -8.03905047419346
H            1.83285430894745       -1.15610494100152      -11.69822241123033
H            2.87751701958908        0.64677132202551       -5.90173880299353
H           -1.18775067222635       -0.29335827774853       -9.27799001464911
H           -3.24987266573331        3.03365791958138       -8.68172873994544
H            1.96922707511652        6.77135609480694      -10.07652801990459
H            2.64218174178943        4.91315912367828       -4.15944106893200
H            5.18994166466088        5.99942951077481       -7.56281796173326
H            7.75094074636265        6.40574660230812       -4.34356098489283
H            7.93471385708580        1.64106212928252       -9.31334601947431
H            5.93518917084628       -0.30894624364078       -4.70452902481086
H            5.12608142097459        1.15213921359100       -4.08266414415362
H            5.90923649449636        0.01685353334726       -2.95511061170285
H            6.57955875208482        2.04037302396024       -0.39658148172840
H            4.13713719153965        1.86173258335237       -0.62301876267653
