63
 energy: -11.411409659934 gnorm: 0.000575943000 xtb: 6.5.0 (97a52f5)
C            0.46906359994102        0.80781256911600        0.71312830256763
C            1.97469838865945        0.73237190808349        0.68884739722275
Si           2.83794993450612        2.38627138507004        0.41565940413933
C            2.34198096664554        3.03577044667020       -1.28836852167202
C            2.45282211961112        2.01678947334151       -2.39709940949415
C            2.32232351106091        3.62824256524088        1.74205037580898
C            1.06988138264756        4.41543006901069        1.44694357032099
C            4.68206553835117        2.13480935369603        0.53815717051192
C            5.45575736773838        2.46472753618003       -0.54981771175269
C            6.84082069175599        2.27454970833510       -0.54821430364543
C            7.66014525060979        2.61037371315966       -1.67022393662344
C            8.99865678628584        2.41846373132638       -1.64342677740779
C            9.64589376962272        1.87263569826119       -0.49028910827777
C           11.02574562335719        1.66709521446865       -0.43402287461308
C           11.61576516098736        1.14260949933182        0.69782317982371
C           10.85583960314723        0.81019575294518        1.80056640367108
C            9.47188453902211        0.99564148183198        1.79583144508854
C            8.64988436248974        0.66645087508240        2.91849309632431
C            7.31238267072730        0.85971507612569        2.88545272034056
C            6.66215008941120        1.39791910492628        1.73398163887653
C            5.26757094824938        1.61065511695453        1.69243167279765
C            4.45526901687713        1.30604911826203        2.90664544223715
O            4.19033060527324        2.19141279022808        3.70832589027262
N            4.05941641394409       -0.01090388583809        3.07290457640165
C            3.41888323242872       -0.50736416564460        4.31554547284808
C            4.40448289257581       -0.35585503128029        5.47716457089588
C            2.14619260785048        0.29641177311495        4.60052218794001
C            3.05513477766728       -1.98628487934128        4.13299586469114
C            7.44865642292349        1.73197294841420        0.60683668829758
C            8.85947321295078        1.53155923239265        0.63723626498782
H            0.01194130124835       -0.17836810361770        0.82536633697735
H            0.07929961878437        1.24860785010947       -0.20655534022656
H            0.11777091419814        1.42553988765891        1.54178229876205
H            2.33089495627823        0.07071423496594       -0.10435882535334
H            2.36471965719954        0.33167058718387        1.62477578919654
H            2.96482111071760        3.91267652612884       -1.47993439671423
H            1.31600570222772        3.39863998410386       -1.19498020957342
H            3.45849567621060        1.59762750562731       -2.45696299031499
H            2.21672364462210        2.44724084091074       -3.37321985293313
H            1.76992820941989        1.18056365596567       -2.23628983787726
H            3.18203023601085        4.28867175261077        1.88065974394321
H            2.22338548165125        3.05128406016801        2.66418300361908
H            1.19128366274354        5.03387516861263        0.55562774580288
H            0.80254790059515        5.08111742285674        2.27111565528512
H            0.21805971646752        3.75714236750706        1.26835782500396
H            4.99536687623660        2.89023156192006       -1.42245221855905
H            7.18896613274762        3.02338989025629       -2.54543173397391
H            9.60110880824597        2.67714069016138       -2.49702197168229
H           11.62798144656102        1.92476344317609       -1.28821258983963
H           12.68292476598167        0.99252725360563        0.72149533268269
H           11.32588167593776        0.40328359523630        2.67923003188964
H            9.11776808661584        0.25803546486852        3.79750178026258
H            6.70885060530565        0.60477638689251        3.73792836920593
H            4.43546079355930       -0.73743767006100        2.46453114454553
H            4.68341656121434        0.68905900594579        5.60358540367956
H            5.31277975666833       -0.92578065985743        5.28703579182695
H            3.96922952268046       -0.70936497548668        6.41124400355081
H            2.38047801526618        1.35326930049668        4.71159559471051
H            1.66507027339426       -0.04299124746399        5.51700530227699
H            1.43207626691322        0.19460230796870        3.78546672679408
H            3.94498526818103       -2.58307445646244        3.93750744158628
H            2.37358838066481       -2.11328945430227        3.29288234947429
H            2.57126748812555       -2.38297235704948        5.02495160324741
