50
 energy: -9.220950812023 gnorm: 0.000810223173 xtb: 6.5.0 (97a52f5)
C            1.46938228098988       -0.47986533518479        0.93729990742170
C            2.36388927556361        0.00134684995520       -0.18449673324501
N            2.84893910987087        1.38064535019409        0.04379059425505
C            4.05421090284529        1.55515053937413        0.62829726936149
C            4.90369937570387        0.39768866299956        0.99481942467235
C            4.97565935126581       -0.04469832981584        2.31675388239444
C            5.78131520819624       -1.10568510764463        2.65778860788938
C            6.53263377540318       -1.74352360824166        1.69175887430312
C            6.47949362591561       -1.31579299286420        0.38077334974438
C            5.67641047118339       -0.25503334061024        0.03267088782580
C            4.52322499764319        2.88109754368689        0.90288360647315
C            5.77095886618119        3.08075006047257        1.50800146195164
C            6.24896648647819        4.33851569765450        1.77769122827026
N            7.53662201484225        4.50445780929113        2.40555809497515
C            7.85158460615592        5.42069227151170        3.39200658253698
C            9.16428739486319        5.25469951682275        3.72999645381058
C            9.68052339071954        4.21542250885373        2.94186399585620
C            8.67338801950462        3.76428237823891        2.13754767456462
C            5.46772957017700        5.44421623708380        1.43588778090288
C            4.24580236083273        5.27992446850353        0.84489153894732
C            3.73568776240620        4.00082934380272        0.56107430626440
C            2.44820352502807        3.78881963011096       -0.05463371908131
C            1.60509853901620        4.85674049005815       -0.41401209046804
C            0.38540508557109        4.64023024975184       -0.98097855007664
C           -0.07085825462721        3.33383784102899       -1.22178629952098
N           -1.31098269288215        3.11139465880323       -1.78041244106896
C            0.75511078374320        2.27321220767593       -0.87347749793566
C            2.00944836200584        2.46739650619091       -0.29983354846885
H            1.11253990008553       -1.49784880158217        0.77028888563192
H            0.59792111856944        0.16517240113096        1.05170194547283
H            2.00190379005599       -0.46536372025699        1.88898074689596
H            1.86098358334421       -0.04350803760908       -1.15463401495647
H            3.22769055800286       -0.66045859766246       -0.29335411291785
H            4.39141077356392        0.45933341400891        3.06680004903436
H            5.82626100700482       -1.43862542055812        3.68161797415017
H            7.16252905207139       -2.57494676741605        1.96179962255466
H            7.06906066898347       -1.81276483677687       -0.37192559987941
H            5.63877531617134        0.08944447862159       -0.98617334542502
H            6.36886480822461        2.23136438489365        1.77831313878868
H            7.15977929474556        6.13050660971753        3.81673828809812
H            9.70696759729773        5.81972184249697        4.47152607256390
H           10.69261323704110        3.84275093643156        2.96449717217237
H            8.73798940979869        2.97984562142456        1.40034383796305
H            5.84864555365977        6.42954879074070        1.63880518525959
H            3.67083768291338        6.15216850254308        0.59529394518000
H            1.92213356960686        5.86799998534585       -0.23920317802971
H           -0.24791938431888        5.46802285675688       -1.24638607754890
H           -1.89584902075937        3.85218870661644       -2.12373189883579
H           -1.63426486488697        2.19974259116977       -2.05108506175756
H            0.38988215422781        1.28133295225952       -1.04950821697214
