32
 energy: -6.307188220097 gnorm: 0.000808853116 xtb: 6.5.0 (97a52f5)
C            1.02303469509066        0.21873320848154       -0.22719254600548
C            2.47663899830834        0.17136670804238        0.03736962048873
C            3.19091272283059       -0.94684813667422       -0.08660090361620
C            4.61467586667014       -1.05620747882207        0.14721477783458
N            5.34694123092624       -2.00734265713180       -0.38893260951487
C            6.63970080306687       -1.83796780285017        0.03366293724069
C            7.73025872646821       -2.59391444148621       -0.29670287186255
C            7.72798958813692       -3.71920168589031       -1.17834006977337
C            6.56191834799053       -4.16498306742829       -1.81532687921989
C            6.57547533960077       -5.23958049182044       -2.66081006795575
C            7.76720392569279       -5.93260605287172       -2.91611777779531
O            7.81800656726669       -7.01711713703054       -3.76117317225115
C            8.93647363473934       -5.49145258805172       -2.28132126825653
C            8.91868234833862       -4.41573976680887       -1.43597026563562
C            6.69317310337815       -0.68755910416696        0.94287178913720
O            7.66638834490627       -0.25899572749379        1.54037167847029
N            5.38801594633038       -0.22006403779306        0.97379601831264
C            4.96191301262880        0.84128490246424        1.87189030697725
H            0.60986693922102        1.21621570268175       -0.06471050049332
H            0.48740775521766       -0.47120932053608        0.42666570896604
H            0.80667582554251       -0.06533355673866       -1.25832963797876
H            2.98115245443742        1.08435558356784        0.30121234383740
H            2.69081860686989       -1.83908351956045       -0.41941447279230
H            8.66846842079899       -2.31404514681436        0.14779346040068
H            5.64291159454050       -3.64270407050576       -1.62873547896117
H            5.66832633121550       -5.56390191010104       -3.13776767405106
H            6.93225606419240       -7.20499162489134       -4.12634021087709
H            9.85143640227145       -6.02141754536097       -2.47668375249361
H            9.82722532007935       -4.09134844130047       -0.95866862673475
H            5.71339581120941        0.97984271637471        2.64682772799744
H            4.01761569529925        0.58175981126807        2.34593384837100
H            4.85472957673643        1.77547667924924        1.32495856822934
