44
 energy: -7.766868945039 gnorm: 0.000316512683 xtb: 6.5.0 (97a52f5)
C            1.17911974138885       -0.27120644692591        0.29981631410404
C            2.66973151599151       -0.09200206979827        0.10444095079900
N            3.00965398197665        0.32775246638751       -1.27338181504553
C            3.38199257740870       -0.61904148604474       -2.16689411315033
C            3.43083666900599       -2.05064416532864       -1.78589230192408
C            4.57870074994652       -2.60074230147449       -1.21066732552472
C            4.62318200363988       -3.93259533923306       -0.87197878834614
C            3.52947176095584       -4.74292899038907       -1.10069972574375
C            2.38832238800614       -4.21858867051036       -1.67316071104137
C            2.33674937646956       -2.88808092787926       -2.01536650181307
C            3.73307543310481       -0.23330347144157       -3.50207587648884
C            4.14466292704035       -1.19415128124085       -4.42991402698870
C            4.50175348470423       -0.85587369840674       -5.72373452151500
N            4.90739596148074       -1.82414181929051       -6.61981776428150
C            4.44102722564564        0.49842478024568       -6.09711113774525
C            4.03965357307451        1.45330138537085       -5.20871492456378
C            3.67436883607549        1.12475994385089       -3.88959953988618
C            3.24441424525388        2.10903369779196       -2.92870634776197
C            3.13964145506459        3.47515080783718       -3.25020864190989
C            2.72233740654576        4.39263991114609       -2.33298154217946
C            2.38116872006367        3.99771509707109       -1.02974979275319
N            1.95301918445009        4.92228847308708       -0.10054401473536
C            2.48373797830094        2.65300496665997       -0.70074312328643
C            2.90998064359973        1.69548171013509       -1.61793658331032
H            0.93211967779333       -0.56503099392783        1.32159491906707
H            0.78921612340996       -1.03830055653790       -0.36954426062813
H            0.63778114292997        0.64834080669617        0.07686520133980
H            3.19859943566600       -1.02388988577068        0.32499123235607
H            3.08780078561755        0.63409635704743        0.80765304983809
H            5.43015298890598       -1.96567903609486       -1.03817094962263
H            5.51426444582599       -4.34463147208473       -0.42784089314439
H            3.56719781235137       -5.78623605018359       -0.83381054964845
H            1.53617783273348       -4.85313610144067       -1.85304091557142
H            1.45179318751011       -2.47602759859618       -2.46820972276023
H            4.18930881687502       -2.22459073440078       -4.13407981357546
H            4.93020772943397       -2.80374059471135       -6.39992130407742
H            5.14110968355399       -1.62543352768765       -7.57597893750648
H            4.71862597817779        0.77071637139097       -7.09981766113639
H            4.00747269163700        2.47732172596443       -5.53129661493430
H            3.38850736871379        3.81059956035440       -4.23980643670462
H            2.64639642294656        5.43249326842912       -2.59684294908323
H            1.85428630664707        5.90117813170064       -0.30150688639984
H            1.69139880064250        4.68120979841850        0.83854677398462
H            2.21305492943340        2.36341795981530        0.29477857329943
