50
 energy: -7.691212326844 gnorm: 0.000841287386 xtb: 6.5.0 (97a52f5)
C            1.12218924782846       -0.60890651261198       -0.07871409087478
C            2.57700307346622       -0.18689313674377       -0.11170116991618
N            2.93999188867317        0.64262276259756        1.06064315194687
C            3.46942310429854        0.02982397674510        2.14603775105241
C            3.74404186077344       -1.42646547768460        2.14138751059534
C            2.87862609052238       -2.32228524139012        2.77303763662948
C            3.14689403757924       -3.67017179624797        2.77771314294902
C            4.28174769806396       -4.15366180308651        2.16008972641517
C            5.15329998237261       -3.28373401912578        1.53848257680757
C            4.89198641413365       -1.93456081588701        1.52895566706738
C            3.77310430335640        0.79911147234837        3.31768069596058
C            4.31264016934653        0.18147420595998        4.44906197793994
C            4.62310631128375        0.89376180064167        5.59431390066650
N            5.15094108500631        0.25835469644721        6.69861371440897
C            4.38030730150968        2.27812479689169        5.60092578954814
C            3.85589859881023        2.90217096312753        4.50687088835992
C            3.53914057174615        2.19191045612626        3.33485304371070
C            2.99070265218736        2.82337057099543        2.15935769111737
C            2.76779258900360        4.20906327665280        2.08817123737562
C            2.26077302513829        4.79269098846454        0.96450727530759
C            1.92431990853109        4.01920411656351       -0.15165521888779
N            1.48722461438864        4.64803667008423       -1.33833744105122
C            0.82802457072631        4.11163159687440       -2.42239425904681
N            0.15057486553782        2.95228231441795       -2.31540335562632
N            0.83826505403635        4.79269007242073       -3.58267869405483
C            2.12806798023263        2.65383781316696       -0.08858948273977
C            2.67365523786161        2.03091073863782        1.03328813863552
H            0.84204599856734       -1.18615150218502       -0.96220173141161
H            0.46329195452092        0.25731094581894       -0.01948234181338
H            0.91615747140567       -1.22201701286150        0.79937644108789
H            2.82492799317705        0.35856348813053       -1.02595256067686
H            3.22627360637476       -1.06618724464869       -0.13481831319978
H            1.99740384796370       -1.94122999814094        3.25989879964972
H            2.46926960173162       -4.35186237014296        3.26602317098885
H            4.48911819091814       -5.21204379550889        2.16503418172634
H            6.04254411725362       -3.66333216946640        1.06128939429764
H            5.57609178481339       -1.25154285912923        1.05514267832815
H            4.49308630349326       -0.87622379536313        4.43526195506155
H            5.35933590025551       -0.72284799517849        6.72309683803440
H            5.40664861958906        0.74052147947340        7.54046862378995
H            4.61508547127384        2.84165342511990        6.48693203282417
H            3.68097342060356        3.96138542189375        4.55433337209796
H            3.01067423907781        4.83445611426736        2.92744181422010
H            2.10905594538136        5.85763170047588        0.92636370967383
H            1.78667160774488        5.60975558362035       -1.45916429404412
H           -0.11443483347765        2.55922495611442       -1.43086888845919
H           -0.40519871434830        2.58932351431255       -3.06469497509082
H            1.32876393575819        5.65207989770024       -3.72562888848172
H            0.38313118967372        4.47015756865734       -4.41135362657831
H            1.88119011182988        2.07628016065514       -0.95467519632018
