96
 energy: -13.741064848207 gnorm: 0.000588532123 xtb: 6.5.0 (97a52f5)
C           -0.01074549846967       -4.72841599691996        5.30756689077484
C           -0.54652154798468       -3.48024770282961        5.97995626512637
N           -0.01754725041383       -3.31864690217556        7.35412498415513
C            1.05769630873701       -2.51818592982364        7.54967173726467
C            1.67210907704835       -1.77590194225856        6.42359042388957
C            2.82927837580465       -2.24749600004741        5.79968081455557
C            3.40482176245728       -1.54572829291303        4.76759167680891
C            2.84520295168785       -0.35993068316730        4.33870159065976
C            1.70691025093050        0.12654471923498        4.94764992431298
C            1.12530455461672       -0.56940444368160        5.98027435447990
C            1.60866876512987       -2.37896009316423        8.86618458662717
C            2.71997095050565       -1.55673545653782        9.08627398614787
C            3.26805971454999       -1.39161811994267       10.34203692646823
N            4.39032569164130       -0.57075406629050       10.51751536984536
C            5.02981142734644       -0.31317917954830       11.72822320338994
O            4.62467372315783       -0.79347935259288       12.77384911675322
N            6.14966970270852        0.49832453825513       11.75106069892578
C            6.80037918698245        1.07683958799410       10.57347113946256
C            6.03657423942476        2.30530878808705       10.03902410506594
C            6.73282702719824        2.92835591657173        8.81495602122634
N            6.01191852428507        4.12931529827959        8.29982358651373
C            8.19808618153955        3.30648162215368        9.14427614193778
O            8.84709738292766        3.83499020841950        8.00561373917197
C            8.98875967747545        2.09494942843421        9.69862775720048
O           10.29357081087928        2.50701819712347       10.04816063019954
C            8.26474108003699        1.46512207951279       10.91434225650945
O            9.00862930062190        0.38502706194736       11.44321891527500
C            2.67663559923028       -2.07162329452091       11.41303032423193
C            1.59456881600011       -2.88185873802916       11.22903432114802
C            1.02838785050719       -3.06395294230389        9.95635099147104
C           -0.11138630374789       -3.91698411086044        9.72075303927783
C           -0.73688862966607       -4.63768842139093       10.75282976563569
C           -1.81063505298097       -5.44326164718615       10.51078667439570
C           -2.31924942612474       -5.57988869458470        9.21407350560351
N           -3.43644553162003       -6.38666339216662        8.97434498076011
C           -4.02591906773876       -6.62533481652034        7.73721863122950
O           -3.53320711182750       -6.20550754626028        6.70776002920908
N           -5.18610313157479       -7.37256641091542        7.75953832286410
C           -6.08687676562624       -7.61246925205565        6.61337305091846
C           -5.77146037784735       -8.91682074403893        5.83973382840970
C           -4.77860365900332       -8.76608309833748        4.66696677981916
N           -3.36761734403643       -8.63500179741160        5.14183132501229
C           -5.19217465099289       -7.57845858418913        3.75287381553198
O           -6.44938945924789       -7.81528554984695        3.13515646054396
C           -5.27684978036166       -6.24910355091051        4.54949910087803
O           -5.61008177947094       -5.19539802200488        3.68051236490811
C           -6.31642797284359       -6.37449026600351        5.69214707250959
O           -7.61813192593843       -6.38821612061337        5.15046649252076
C           -1.70818469614813       -4.87966872151482        8.19248101993585
C           -0.61796903155898       -4.04134171084912        8.40836573409498
H           -0.41353834379657       -4.85616435071414        4.30070383797130
H           -0.25441089964709       -5.62170653696457        5.88342931435250
H            1.07647130777248       -4.68976371693110        5.22892431524180
H           -1.63973106825848       -3.47288615530639        6.01813403873752
H           -0.28625898747480       -2.59276536346229        5.39628532743978
H            3.26732048390817       -3.16990800637270        6.14081716549271
H            4.29651545922376       -1.92213243854244        4.29214860924409
H            3.29920766621221        0.18829528386499        3.52815466136118
H            1.27388713230597        1.05590088143371        4.61353515450639
H            0.24372970216787       -0.18684094780589        6.46599998367874
H            3.16036512830955       -1.03829149590256        8.25580257593604
H            4.78159736011418       -0.16518092850471        9.67791005895561
H            6.67100789218563        0.59580948023963       12.61743495398569
H            6.83868915251073        0.29756793269506        9.80055487862083
H            5.97089412682930        3.05079483816696       10.83582818383277
H            5.00030954676892        2.04756119505021        9.80102831505370
H            6.76922348084545        2.18195968481741        8.00470593925438
H            5.93791764141437        4.84476460443794        9.03344302996432
H            5.06384062690505        3.89438643261548        7.97767936943209
H            6.53965662897278        4.53447622423960        7.51624394526405
H            8.19843517936201        4.10270154920760        9.90348771128969
H            9.79945265921074        3.92320451117535        8.17804967852726
H            9.09252784281445        1.34834526990975        8.89825759677616
H           10.73371132066437        1.82555925087991       10.58327563168357
H            8.25158693212002        2.21234293037455       11.72103405145303
H            8.95288564072859       -0.39667182695858       10.86665161424746
H            3.10163098293248       -1.94040455639598       12.39278454066350
H            1.17572595835798       -3.38503826760107       12.08120126148935
H           -0.36946882387559       -4.55923544497712       11.75973519618400
H           -2.27672414987597       -5.98419199879681       11.31652099831725
H           -3.88968829754919       -6.80024991664608        9.77977012799584
H           -5.51823201327299       -7.74817758646633        8.64568574476852
H           -7.08184644960772       -7.76593951682652        7.07397529367637
H           -6.70253661078212       -9.35663482863648        5.46446603822224
H           -5.36337755429346       -9.64124925273263        6.55267130931438
H           -4.82920683006795       -9.68197756137648        4.05257049695037
H           -3.32023696027673       -7.79259755545172        5.74034363182291
H           -2.70925241213378       -8.52542214216338        4.36084792933485
H           -3.08038006422749       -9.44635065337858        5.70221280552858
H           -4.45365930100564       -7.44111160347487        2.94649017852571
H           -6.40096513450583       -8.52924298683385        2.47836189117664
H           -4.30110153116538       -5.96607328082187        4.97043222234407
H           -6.46710794086662       -5.37616790757646        3.26148715172903
H           -6.27050639500511       -5.46389589990667        6.31152067953123
H           -7.64709286784583       -7.04162635753821        4.42466762632513
H           -2.11075015542095       -5.00562683571431        7.20729046018957
