48
 energy: -8.628571146315 gnorm: 0.000886019177 xtb: 6.5.0 (97a52f5)
C            1.13732368511986        0.33559198120541       -0.12350522457569
C            2.54871628404731       -0.21267401802768       -0.10509875787758
N            2.93573596817636       -0.69867475976201        1.23839885821151
C            2.79570575732453       -2.01681333173660        1.51764928235294
C            2.33559051725786       -2.97220698334584        0.48335858692651
C            1.02526885514308       -3.45609943192199        0.48655734417168
C            0.60773463331515       -4.35600273166541       -0.46517805735632
C            1.48464978291037       -4.79478002926681       -1.43632805219042
C            2.78509053394446       -4.33294678267575       -1.45249404308361
C            3.21019508391665       -3.43387310352171       -0.50324062405085
C            3.09062974689087       -2.49615055327068        2.83557694539366
C            2.94856988096834       -3.85377456727574        3.14329827693015
C            3.23476958757672       -4.35306717157532        4.39747707658058
N            3.02991510407937       -5.71974283684309        4.66970551438818
C            3.55619495459644       -6.49885525997523        5.70567528384198
N            4.65817574841916       -6.05497588874109        6.39167288861621
O            3.04351618280347       -7.57774996698108        5.96035927237047
C            3.65605946681443       -3.45355485197430        5.38611516491620
C            3.79981475784399       -2.12338517100345        5.11502808203259
C            3.53170782041884       -1.60287211386410        3.83673671587598
C            3.67923737667404       -0.20558867800746        3.51289191944843
C            4.12395515955514        0.73882670347227        4.45619301137063
C            4.24936523208232        2.05804588571770        4.13823673910910
C            3.93304702494719        2.51632325823273        2.84992540826608
N            4.05344861546843        3.85129857547568        2.52669144825539
C            3.49787000429565        1.59226715996343        1.90994857777249
C            3.36759875947593        0.23750189254327        2.20659657602861
H            0.85095259425058        0.69913482210734       -1.11213867588772
H            1.02452432893529        1.15963461739198        0.58120694246231
H            0.42113045874134       -0.43241451401580        0.17010978043496
H            3.27978721364213        0.52827331263727       -0.44072715884007
H            2.64570919511425       -1.03558087076158       -0.81861847302608
H            0.34526520829870       -3.11331084198384        1.24718872956733
H           -0.40622315113898       -4.72087312309372       -0.45229906650712
H            1.15432972199133       -5.50026806816972       -2.18114643873774
H            3.46917239258497       -4.67962211861949       -2.20961391696512
H            4.22690293417503       -3.08033492341559       -0.50459608216021
H            2.61325787650433       -4.53151745932695        2.38161374364936
H            2.35214888762496       -6.19759135157480        4.09336336518037
H            5.26197329281493       -5.35181840112353        6.01222733176868
H            5.11034148237789       -6.66589693443012        7.03744310539915
H            3.82993056581316       -3.82445146643618        6.37922140174593
H            4.11657154560419       -1.46616154165471        5.90348741193809
H            4.37509778836751        0.42102204717795        5.45120387253458
H            4.59174218034743        2.76640451289737        4.87172707724261
H            4.35267651936497        4.55244061518020        3.18002771759287
H            3.82782255410722        4.22234836925505        1.62145547189858
H            3.25551988641367        1.95749609278532        0.93228564698440
