40
 energy: -8.228644802105 gnorm: 0.000592692876 xtb: 6.5.0 (97a52f5)
C            1.13349597463272        0.08457864969564        0.20500634002105
C            2.63958450380292       -0.06184552512309        0.19256497661648
N            3.09852952678101       -0.86258725052808       -0.96451452546903
C            3.44248589951462       -0.35070868911108       -2.18141649688428
C            3.75201822424988        0.96871270722358       -2.56859634662764
C            4.23200035242187        1.96699181321205       -1.77137833135751
C            4.52423199580257        3.27627423146309       -2.19504199017686
C            4.31944495709924        3.71681779869533       -3.55919225396443
O            3.88296947392843        2.96094603373998       -4.43394392638475
C            4.64487591083950        5.07855291038759       -3.87663421571257
C            5.13102935195892        5.92698726434889       -2.94336732882922
C            5.34047160960185        5.50775231805149       -1.60822548355455
C            5.84869591660772        6.38098608853860       -0.62220386915177
C            6.03261128326890        5.94830987583685        0.63641396363297
C            5.71806597750915        4.59242566967112        1.01304402533888
O            5.90155631223444        4.24355162520532        2.17364994662798
O            5.22034565359662        3.73018462110277        0.05649185708018
C            5.03723760821245        4.18622884914289       -1.23414281937197
S            3.44681262059254       -1.62083230742078       -3.37414412601218
C            3.05456737969660       -2.85201615615127       -2.19523053021588
C            2.89471623083747       -4.21593978508805       -2.37600612611689
C            2.56827559321917       -5.00115044443098       -1.29474584671779
C            2.40000697834074       -4.43306426122705       -0.03634738014293
C            2.55948095050747       -3.08098997366890        0.15138900422893
C            2.89504078274949       -2.27159715618905       -0.93800927707010
H            0.78313611960759        0.66159414161834        1.06286101918565
H            0.64487378870137       -0.88994230483875        0.23645694431489
H            0.78678116206339        0.58645499622919       -0.69915830892034
H            3.00106317267271       -0.54219802495819        1.10676211207733
H            3.11158992791343        0.91987263629138        0.17723862246412
H            3.66924732669718        1.18257403412599       -3.62054106681876
H            4.48681116160952        1.74066870136472       -0.75263641096902
H            4.49059108889066        5.40478803585781       -4.88912534617938
H            5.36855160904496        6.94278066727346       -3.20882748650727
H            6.08615412630668        7.39554886115960       -0.89217806559547
H            6.41824051541439        6.60358217743665        1.39615426906717
H            3.02499416763664       -4.64133406819950       -3.35582318866099
H            2.43987675107887       -6.06324632794780       -1.42354145193600
H            2.14196348647434       -5.06131361394535        0.80011756802408
H            2.43130452786961       -2.64729881883152        1.12656155068075
