55
 energy: -10.750668199370 gnorm: 0.000530915805 xtb: 6.5.0 (97a52f5)
C            1.57320265391450        0.13033004967892        2.64114155691966
C            2.21336014784836        0.10861881789566        1.26959180374559
N            3.04872186184065        1.29416375021337        1.03881077369335
C            2.62395963745085        2.39712373262465        0.32785669889687
C            1.46838414966281        2.71904183672836       -0.35248088118639
C            0.21336784332787        2.10002905106154       -0.48045115348661
C           -0.85969829733840        2.54380846067765       -1.34959924499232
O           -0.98828776897477        3.45698431620515       -2.15984649992944
C           -1.72402086660615        1.47944068492721       -0.88297818376875
C           -3.02857450364696        1.18713696374935       -1.27777259413212
C           -3.88754153138468        0.19966535034089       -0.82343772904505
N           -5.15449488766957        0.01795935871334       -1.32439714861436
C           -5.73793121107127        0.79589420772713       -2.41436759022016
C           -5.86190694346120       -1.01752245852182       -0.65842510803484
C           -7.15469633087948       -1.50038174632596       -0.83697145544915
C           -7.59766268150601       -2.52643773015348       -0.03262251764469
C           -6.77014190775017       -3.07236915638255        0.94390306488955
Cl          -7.35267184047460       -4.35847052940027        1.93981013887928
C           -5.48006894191899       -2.59154986894529        1.12580873241564
C           -5.03309596927855       -1.56555339914156        0.32325205003720
C           -3.68890643526276       -0.84147878501096        0.28706322099496
C           -2.58216951740339       -1.83726847079604       -0.08348611524089
C           -3.42995206553478       -0.16353050654437        1.63884666409889
C           -0.65752711997044        1.03019713656963        0.00449045567635
O           -0.57294542141050        0.12152555574965        0.82313008148515
Se           4.06105395846730        3.65313285275693        0.24988645634737
C            5.09666674402305        2.45780166533807        1.29100807527438
C            6.38340073005177        2.62595683758711        1.74252029232533
C            6.97369010832903        1.62604697556959        2.49463129305699
C            6.27257977642226        0.46892772099380        2.78721323809016
C            4.98127955720640        0.29739388045857        2.33757903624355
C            4.37465361158409        1.29990569976054        1.57954889022311
H            0.94676839093432       -0.74742416501742        2.81063465257648
H            0.93914594172914        1.01081397065168        2.75132603289348
H            2.32303564747629        0.17037489763760        3.43169098418146
H            1.46323387462890        0.06157586946527        0.47715047552345
H            2.83108469659852       -0.78441779143646        1.13171231282063
H            1.53707232524812        3.64450065797761       -0.90421499066862
H           -3.41841286233396        1.83556658721543       -2.04201137942058
H           -5.89129132859640        1.82473742198061       -2.09557212422822
H           -6.69502973761363        0.38078594135096       -2.71836224866909
H           -5.07460344723983        0.78400397989023       -3.27670505363492
H           -7.79525126612094       -1.07528616419538       -1.58795924128370
H           -8.59290254508104       -2.92108540304963       -0.14683963212845
H           -4.84652419221301       -3.01758968343759        1.88239098755725
H           -2.81092441155005       -2.32811133184745       -1.02836886838166
H           -2.47947620326141       -2.60536295057553        0.68145220665010
H           -1.62306433424910       -1.33657420807586       -0.18827372164365
H           -4.24164964288620        0.51967257570469        1.88496253369261
H           -2.50377881566133        0.40565510751409        1.62038677027065
H           -3.35515499434370       -0.90188450211612        2.43560100061439
H            6.91477686108771        3.53155392768026        1.50545597150059
H            7.98241739099573        1.74896866175011        2.85246333742812
H            6.74131772549944       -0.30521805259786        3.37225542220918
H            4.44325439023882       -0.60348759958633        2.57022826709602
