36
 energy: -7.085699921858 gnorm: 0.000956822853 xtb: 6.5.0 (97a52f5)
C            1.09126625979790        0.18979737117718        0.05113209362783
C            2.53479253499379       -0.04763812438263        0.26562777604348
C            3.32786720445246       -0.56976620328540       -0.67147532937342
C            4.72571450344959       -0.82463364569032       -0.47179837799872
C            5.52398668775122       -1.33720116544235       -1.42627439083553
C            6.92327126356404       -1.62087213320030       -1.29747776758735
N            7.66068465267289       -1.95761435918363       -2.34091349157362
C            8.93903852387720       -2.16699717556822       -1.90912605752447
C           10.02635651326194       -2.52223158213748       -2.66152871325520
C           10.02946645303847       -2.73479217037542       -4.07377146070174
C            8.87180152461115       -2.59209974553562       -4.85210731851891
C            8.88969719197023       -2.79576896942417       -6.20384740922758
C           10.07760550754231       -3.15644670162203       -6.85625411433444
O           10.13214121682166       -3.36926372999285       -8.21391833036999
C           11.23861468501117       -3.30045017132703       -6.08281592519462
C           11.21664571457416       -3.09589959095858       -4.73045820801544
C            8.98971728709372       -1.95999856632508       -0.45718748635204
O            9.95776072567198       -2.08608000620260        0.27392860687089
N            7.69265591547491       -1.60644859211840       -0.11664330106876
C            7.28495216146316       -1.43173785542152        1.26840348563795
H            0.65476208101171        0.79505899947801        0.84794150921598
H            0.54432655958605       -0.75365730816715        0.01275514369222
H            0.91847145196571        0.71195869498374       -0.89138467411042
H            2.96054747454309        0.18264208576348        1.22837120058108
H            2.90368561561052       -0.81659554865113       -1.62943356510588
H            5.14100860338574       -0.56647505724125        0.48272701100554
H            5.09134290129643       -1.54067037670503       -2.38949364848043
H           10.95728846081937       -2.65189202527162       -2.13918275253887
H            7.95616819227880       -2.31584670590754       -4.36459747810357
H            7.98943263822546       -2.68115035518174       -6.78043899706880
H            9.25143091859363       -3.23210737548288       -8.61381085433879
H           12.15072539742842       -3.57568311627478       -6.58190533049182
H           12.11841530029211       -3.21054637055202       -4.15367959248002
H            8.09963928336823       -1.73556470176740        1.92307187310774
H            6.41725609317652       -2.04976786921880        1.49006619574763
H            7.05870250132604       -0.38623985279095        1.46659967911525
