55
 energy: -10.742817875322 gnorm: 0.000658426324 xtb: 6.5.0 (97a52f5)
C            2.28760217095293        0.58957922654528        2.65437324427268
C            2.59029852694441        0.33024925385916        1.19412706897591
N            3.22894497310524        1.48558246587502        0.55680661066288
C            2.56606673409976        2.42640144258269       -0.20743195001242
C            1.25097640612007        2.56873129898434       -0.60777715087363
C            0.06340536648660        1.88266490997183       -0.30682537632133
C           -1.22933273855333        2.14552847142241       -0.91016283764661
O           -1.63276745111128        2.92317101410701       -1.77037312748584
C           -1.85665851610315        1.12645563287814       -0.09424544930587
C           -3.19266849753841        0.72827803342701       -0.08219120312331
C           -3.82098866875749       -0.22424498030972        0.70358845469022
N           -5.15739436152073       -0.52726184097822        0.59510881884822
C           -6.07386313933379        0.07820255811811       -0.36782963233463
C           -5.57446998316868       -1.50260809523703        1.53924941264928
C           -6.82416852038408       -2.06622912940987        1.77790795993509
C           -6.94922389960352       -3.00687033521925        2.77574408197889
C           -5.84732801610736       -3.38962927125793        3.53466618817429
Cl          -6.03228961109685       -4.57583422376512        4.77756140599014
C           -4.59944421449515       -2.82683653008035        3.30099104066588
C           -4.47052955845255       -1.88510919774086        2.30462297691771
C           -3.24972258693045       -1.10369579943550        1.82458037666849
C           -2.20023920515794       -2.07995884309682        1.27765415344651
C           -2.70321315919260       -0.24613048525699        2.97343513246739
C           -0.56520150713494        0.86042697111526        0.52915607910071
O           -0.20035141528245        0.08655790728202        1.40745277542439
S            3.78453649455083        3.61540541323134       -0.79775316439073
C            5.11598423781393        2.79271502117405        0.05574333815270
C            6.45112460978896        3.12661608814708        0.11083491908940
C            7.32004383094511        2.33576683396239        0.84065300360899
C            6.85330883382068        1.21732126425049        1.50990840070175
C            5.51925540467211        0.87636069284107        1.46052170149986
C            4.63568810634357        1.66787305174448        0.72880426235477
H            1.80583788395236       -0.26789067346685        3.12798978861621
H            1.61565324776242        1.44214888377962        2.75895179693260
H            3.19425362669660        0.82163220826407        3.21385062200031
H            1.68631721342547        0.08957023567963        0.63089285044752
H            3.24398323830727       -0.53911096474076        1.07192189739090
H            1.09523479467745        3.38438170687584       -1.29706974069145
H           -3.81925626383152        1.24762372327879       -0.78503985597179
H           -6.23828695242058        1.12399770792038       -0.11698364275212
H           -7.03204719816184       -0.43440534973022       -0.36600756484063
H           -5.65809025134003        0.01290565787222       -1.37103840715164
H           -7.67572737514808       -1.76755012464946        1.19426270251247
H           -7.90310557652390       -3.46078945003323        2.98380205710187
H           -3.75261284878294       -3.12615915066330        3.89137851967273
H           -2.62832734181140       -2.69940701375215        0.49078529455141
H           -1.83376554396109       -2.73689786386881        2.06488762156561
H           -1.34922487642087       -1.54771073139513        0.86057514613532
H           -3.47853620343591        0.41454148123725        3.35890325217226
H           -1.87098149795431        0.36941778075419        2.64141581769198
H           -2.35308135410711       -0.87223126398153        3.79253285488484
H            6.80316974672997        3.99799614990304       -0.41372248575647
H            8.36553384346694        2.59158722686430        0.88735515102596
H            7.53975219644372        0.60785377509346        2.07439080026911
H            5.16055684851734        0.00802722217573        1.98270400884469
