55
 energy: -7.633717425156 gnorm: 0.004585734066 xtb: 6.5.0 (97a52f5)
C            1.23772441300036        1.58717635875313        0.53952623591239
C            2.29469189721316        1.19281965488835       -0.36971485174439
N            1.96008175407311        0.16153202018298       -1.24113014132408
C            2.81868831836095       -0.44922688743256       -2.09471751564962
C            4.17170998911224       -0.19924462363356       -2.14771276408830
C            4.91521779479298        0.64607859061103       -1.41615086047759
C            6.19991063930750        1.11067190260135       -1.76539695706416
O            6.79086080163152        1.03497130796392       -2.83468776462520
C            6.66079840842705        1.67885953351099       -0.55424828791606
C            7.76170987382083        2.39055483464919       -0.39656877069449
C            8.32945582811439        2.71518705308081        0.78813708380252
N            9.41074420576030        3.54507808412713        0.96684236403261
C           10.10372350951675        4.24986114825708       -0.06473753561521
C            9.72625198814267        3.68091396415825        2.34812898931702
C           10.68558772100450        4.41140026758266        2.97702421892996
C           10.77423084569804        4.37747292518732        4.28914677492400
C            9.93341680292449        3.62935895556199        5.07106847401696
C           10.07156422669375        3.62954933502088        6.47205198826839
C            8.93127437763916        2.86815012355337        4.46419283188580
C            8.83217777812858        2.90217142854129        3.09194066522996
C            7.92235203582956        2.22335126153328        2.13777376856034
C            7.86083841259739        0.80085654114017        2.26676869711948
C            2.79388464396385       -1.74269849562768        1.71388649139530
O            6.36696064223687       -2.19467004381903        4.06466704408399
Se           3.44739928184255       -0.12753366387439       -4.37823364388318
C            2.11048467304245       -1.51754167646225       -2.99034403951628
C            2.25923389708247       -2.84121826884847       -2.40319736039446
C            2.95050564416884       -3.92775469545667       -2.79336275384253
C            3.02094141836643       -5.11391014382124       -2.08032109977914
C            2.41793787890603       -5.36420946291842       -0.85769148903503
C            1.66795560959184       -4.48787331366671       -0.18608103401322
H           -0.95969110586989        3.93127870627306        3.81030261740511
H            0.97132986993490        0.79389043055552        1.20834027941203
H            0.35971979564940        1.92259219576512        0.02391034487303
H            4.53225494421371       -2.54629765137944        6.31191384168794
H            2.70222075379586        2.02721456749829       -0.91523933769728
H            5.02635783215275        0.52288574589425       -4.44266472404381
H            8.24181993800574        2.03460100705066       -3.97969370754937
H            8.56833418815594        7.17293456174433       -3.45301059004389
H           11.12192924237331        3.92876197712900       -0.12241481265460
H           10.06548049269857        5.30390724537459        0.10878888708050
H           12.79123630982177       -0.54540183689788        2.29453603055340
H           16.17785349027401       -1.62651012444291        4.82960455469361
H            9.60870996368066        2.47362983328688        8.64669151476762
H            8.25923299822892        2.27472671617696        5.05576560718788
H            4.89184385089351        4.12677137360143        6.54272645391193
H            7.49286826948937        0.49659113447940        3.20220051925823
H            3.49026917532216        5.09669216983499        2.10910917506511
H            9.00247635034588       -0.06194784913734       -1.38925075155267
H            2.63620095018900       -1.74040905748955        0.69959921864565
H            9.00115758058719       -3.75715181484501        4.16000263211339
H            3.49278628090575       -3.85776409212916       -3.72242842002570
H            3.60552120454169       -5.91076978756845       -2.51301679636926
H            2.57077672680836       -6.33678607121908       -0.41461946541693
H            1.22179559791272       -4.67546340376552        0.74612817471680
