47
 energy: -9.464840875266 gnorm: 0.000889152125 xtb: 6.5.0 (97a52f5)
C            2.37687416536792       -0.64120935765579       -0.11732155244307
C            3.42639285079156        0.44883487746202       -0.07267876566915
N            3.28294122822762        1.40623269169721       -1.18742813398458
C            2.66448012801133        2.64960830389045       -1.02703218515479
C            2.40838752987013        3.40468556202633        0.08401517453250
C            2.95310250899105        3.30310114238482        1.38833078419175
C            2.60187516556533        4.01351247233130        2.59421119152304
O            1.71976944790837        4.80941946743945        2.90280423750898
C            3.72371289377084        3.41212907133406        3.30387184060639
C            4.18610630879859        3.64251617921799        4.58520318594053
C            5.26173908042797        3.03351938808911        5.25494558448072
S            6.02818134261352        3.82656509059889        6.61519291638856
C            7.19896626400047        2.54109537921654        6.82366258842874
C            8.23271219911552        2.43881880153813        7.73717703052617
C            9.04122695757980        1.31883974723609        7.71380017414901
Cl          10.33383446521853        1.17333218736359        8.85234034497086
C            8.82100889866041        0.30571930628750        6.77989854432993
C            7.79519774147393        0.40105325039554        5.87172015627059
C            6.96756263006523        1.52926673620628        5.89022728574801
N            5.85837056104929        1.82179095237216        5.05238661004971
C            5.32412854460788        0.78148374154473        4.17525761756741
C            4.10296115380096        2.72970397621789        2.06268058244770
O            5.03497804074054        2.01283361746746        1.71110435303149
Se           2.03506980678307        3.23558090977901       -2.73180481692674
C            2.92270802526205        1.74842795661220       -3.50429437631931
C            3.03896686700778        1.43350938444886       -4.83621216956549
C            3.72851747015436        0.29239663764244       -5.20599798803055
C            4.29590488519557       -0.52308794384960       -4.24166024155764
C            4.18186645913698       -0.21226617178984       -2.90451372468846
C            3.48709273920315        0.93500956096033       -2.51991099373383
H            2.48262400960992       -1.34717441911615        0.70853315712049
H            2.43348483271197       -1.20831370791033       -1.04697265895044
H            1.37402404064402       -0.21436879349697       -0.06672798020562
H            4.44128438455401        0.03981935166357       -0.09690148993053
H            3.35026506810222        0.99706062141248        0.86611154794842
H            1.74784823841302        4.24429579565609       -0.06459797643346
H            3.69155194173519        4.43712735703367        5.12034170228982
H            8.40616575620424        3.21926014744986        8.45625382125159
H            9.47259752420025       -0.55149870762785        6.78363171403353
H            7.63235630435273       -0.37321150837390        5.14380101705549
H            5.40079836607740       -0.19401745410915        4.65021995515108
H            5.87767413084420        0.77228847069815        3.23887578202086
H            4.27522305194928        0.97111582717526        3.96144083554295
H            2.59256035160335        2.07680689159902       -5.57492296921661
H            3.82602833606203        0.03956975840365       -6.24871771801299
H            4.83468788477138       -1.40730200720764       -4.54014595183514
H            4.63676941911690       -0.83914054203614       -2.15901804225570
