42
 energy: -6.620355710289 gnorm: 0.000457080558 xtb: 6.5.0 (97a52f5)
C            1.79263401402982        0.95552256091002       -0.08019798349470
C            2.97867217436741        0.13813819244428        0.38675900228318
N            3.14431730400767       -1.09556823804241       -0.40906071976464
C            3.93180532057262       -1.08317303064289       -1.51457954558257
C            4.07550029786186       -2.21050031910136       -2.27246235056271
C            3.40873421701121       -3.38917495310180       -1.92560333665351
C            3.57720206534509       -4.57158765815232       -2.74092292069113
C            2.92637702832357       -5.73639035170577       -2.56258614675776
C            3.07783612431870       -6.93052722231024       -3.35290524100994
C            3.99058177903972       -7.04068594895010       -4.39544179551235
C            4.11896994935923       -8.20777786211995       -5.14113908658540
O            5.01569129885662       -8.38245076597307       -6.19649730186486
C            5.81549301755585       -7.26554698944969       -6.50155435536681
C            3.28659336990071       -9.30502319671693       -4.81533323074733
C            3.38365465001127      -10.54208390640040       -5.56342295794383
O            2.72657538941563      -11.52921467139875       -5.36575225461968
C            2.37757445353510       -9.20350842153799       -3.78177969041460
C            2.24922851939733       -8.03920817125468       -3.03297229689095
O            1.35437816390668       -7.87668598696269       -1.97536202745035
C            0.55982803075867       -9.00020831122805       -1.67913316256525
C            2.60043369282085       -3.36576192656255       -0.78492719726480
C            2.47916439823294       -2.22209910277269       -0.04736712260950
H            1.66687939970555        1.86765344009955        0.50641796121608
H            0.86949637158140        0.37949393915150       -0.00450289062303
H            1.90683308526150        1.24321415281932       -1.12614330126067
H            2.87369845590222       -0.14444008261063        1.43936186101808
H            3.90611478004534        0.71636943989987        0.32210481130924
H            4.43683316823879       -0.17041992099557       -1.77996785495899
H            4.70258543415231       -2.19604955374207       -3.14729545879552
H            4.27483579788713       -4.49199182899729       -3.55368881765603
H            2.20582693452913       -5.81056571202634       -1.76849031052212
H            4.61847938046412       -6.20396046713436       -4.62791642297124
H            6.45361257232192       -7.53061352530799       -7.34622401050500
H            6.44221860685706       -7.01701616320065       -5.64348858009219
H            5.18035003024737       -6.42412106715452       -6.78318180390011
H            4.10521820903649      -10.59142846245222       -6.36943918005292
H            1.76508251570651      -10.05959987771094       -3.56919238600638
H            1.19893642268941       -9.83937120917590       -1.39955907032791
H           -0.06229328103406       -9.24900217169090       -2.54030127798637
H           -0.08321386282271       -8.74302171990187       -0.83608779885091
H            2.07462663710950       -4.25118406158424       -0.47703256142900
H            1.85517408348347       -2.19366886724935        0.82929881446471
