46
 energy: -8.413700797097 gnorm: 0.000397928939 xtb: 6.5.0 (97a52f5)
C            0.87196869438209       -0.69883724286936        0.60917991716210
C            2.10906627309406       -1.25699250229682       -0.05953192517999
N            2.50478772669451       -2.55865761625301        0.51556116227679
C            3.34901484795450       -2.59524449825007        1.57563545276986
C            3.70170171072040       -3.79165369046965        2.13637448924953
C            3.19243538083485       -4.98882067976040        1.62992835444252
C            3.58770019550084       -6.24672070140661        2.23555405234963
C            3.12155041682135       -7.45867701979873        1.88969699194770
C            3.52182686534092       -8.71322676882951        2.50725547765090
C            4.07229097566677       -8.72378739826193        3.76071898839471
C            4.46143047388984       -9.92209366925727        4.41828157680561
C            5.02002301932261       -9.91821820638009        5.69820680534930
C            5.38451454641705      -11.09655024172285        6.31111197974241
C            5.20533768662206      -12.30609413174374        5.67450950911394
C            4.65106378018930      -12.36407857405191        4.39590209274841
C            4.45418217995685      -13.60063285879053        3.70708188157317
C            3.91885238434430      -13.63047904800179        2.46903324923807
C            3.52881278045561      -12.42853512220301        1.79972609508797
C            2.98292237713547      -12.44532426320827        0.51778477744039
C            2.62660649109446      -11.27231654636410       -0.10548971351329
C            2.79701382063134      -10.05794916255503        0.52586237211269
C            3.32772811073013       -9.97714308368898        1.81322353645108
C            3.70550353125518      -11.18498822062010        2.45363425425901
C            4.27331313048690      -11.15871976322180        3.75902763364166
C            2.31908380287424       -4.91535978384328        0.54285001738485
C            1.98743879757674       -3.70254064137075        0.00397823533555
H            0.57376130773442        0.26190057273770        0.18565476301071
H            1.03857823808352       -0.55590799046618        1.67733899663291
H            0.03115207330847       -1.38535439031585        0.50514073743719
H            2.95403750890093       -0.56738037697224        0.03562752987009
H            1.95010758081227       -1.39019061328702       -1.13450239472001
H            3.73120874832098       -1.66795542949386        1.96470901138327
H            4.37410741805710       -3.81771133666509        2.97618533719569
H            4.33361089236955       -6.18603139993389        3.00623287543688
H            2.38523368541476       -7.51250645284090        1.11185696579424
H            4.19388274602906       -7.80001755507221        4.29397501954163
H            5.16385923742900       -8.97933784896498        6.20380260111559
H            5.81395065193470      -11.07292662940415        7.29908893106518
H            5.49370208168057      -13.22105276600021        6.16194937685537
H            4.74418125796385      -14.51496503204067        4.19461287086828
H            3.77935506590886      -14.56983125860497        1.96312539926368
H            2.84785739433542      -13.38796486022868        0.01650059749375
H            2.21228268701305      -11.30219212734888       -1.09980519340886
H            2.52695575483042       -9.15928501441201        0.00261696970720
H            1.90790990292480       -5.81317006483224        0.11916511408046
H            1.31316576695565       -3.63534799063841       -0.83167277245695
