35
 energy: -8.188930820767 gnorm: 0.000887625061 xtb: 6.5.0 (97a52f5)
C            1.10108236081266        0.03247989813582        0.16142030001348
C            2.54900074315123       -0.26304043633689        0.08295633717176
C            3.33832827398745        0.23725479854025       -0.87206551811772
C            4.73849511548389       -0.05774965994693       -0.97568323948766
C            5.53285550743994        0.45913308429584       -1.93645836696314
C            6.93266659550666        0.20734151627797       -2.10574862063717
N            7.66558066640950        0.89160671632409       -2.97318876764365
C            8.94274155054587        0.42366586781963       -2.90529150694226
C           10.03854829671430        0.85487167543262       -3.63040783397786
C           10.04884241004872        1.88873205703627       -4.59187631890163
C            8.88650154624791        2.62061483238192       -4.93349636884455
C            8.91455729706160        3.61441139199543       -5.85777160710404
C           10.13017556349391        3.96742919813752       -6.53180103678398
O           10.16602274416437        4.87821898375375       -7.37958388341902
C           11.30219535971603        3.21918799201949       -6.17984084438883
C           11.25631403384412        2.22718618527101       -5.25292816215239
C            9.00896381821047       -0.66122530375188       -1.92183311315931
O            9.99323197220835       -1.32919187838347       -1.62265381712475
N            7.71504993611578       -0.75998940460480       -1.43066262521891
C            7.30608963294180       -1.81967703262553       -0.52018140477678
H            0.67042068988902       -0.27719111376460        1.11750161329594
H            0.55397063648629       -0.48335281712875       -0.63170797798946
H            0.91362996560544        1.10323341649384        0.04897596788674
H            2.98117271838548       -0.93546246560070        0.80706049836671
H            2.90726764206317        0.89535967140842       -1.60791025687567
H            5.15996086614057       -0.70538652050455       -0.23093430352544
H            5.09112112253846        1.14423766004855       -2.63871523589920
H           10.96966986408910        0.35093110624770       -3.43901119656029
H            7.96374057215036        2.37482844979598       -4.44213524876622
H            8.02179674070948        4.16046832805261       -6.10628361468024
H           12.22550964684773        3.46692244074448       -6.67304127919632
H           12.15107154028053        1.68031722473040       -5.00598454612794
H            8.11951960961438       -2.53423987490782       -0.40134334749375
H            6.44162342942570       -2.35177799752433       -0.91533629966425
H            7.06943153168198       -1.40950798985993        0.46059162569530
