45
 energy: -5.527749976709 gnorm: 0.162700135752 xtb: 6.5.0 (97a52f5)
C            1.39368266810048        0.64319883596718        1.30473269742679
C            2.83585130241320        0.62667641138520        1.20419463914130
N            3.46803286889915       -0.01953793909623        2.26081477625519
N            3.12045035615888       -1.22960873274304        2.57540861042641
C            3.80288010090081       -1.71048178862342        3.63163617097373
C            4.67407332887287       -0.89376752666214        4.31249312404024
C            5.32849230257983       -1.28769245724625        5.36725150459677
C            5.20810211000733       -2.55200878182168        5.87184440905504
C            4.36799781661295       -3.47084186518990        5.22451438943507
C            3.62942478390661       -3.06490725779518        4.08910342767895
C            2.72488600929510       -3.97747773462061        3.37592316302995
C            2.34670387789326       -3.69242948568058        2.09032974698436
C            1.53682124896407       -4.38049761294135        1.26512316499190
C            0.96524149571205       -5.52420920591889        1.71090885245617
C            1.23059077044396       -3.97726390264835       -0.02486930641165
C            1.70773755033304       -2.86338729407353       -0.59340418276208
C            2.27104344917635       -5.08727898701932        3.96683791006920
C            4.33811280225057       -4.88675322868705        5.73172572214109
C            5.43023753506108       -5.19390956715839        6.71945093299186
N            5.77747333537066       -4.11153383874919        7.65786402272097
C            5.93389346727156       -2.90937745600425        7.02004876449316
C            6.85356635097027       -1.92167474994258        7.61969416679200
C            6.14113088218583       -1.03485896251267        8.55866914463066
H            0.94579878286907        2.49294849130958       -2.81258940615646
H            1.06230528159097        1.20350026640859        2.15560022927757
H            0.97871743579580       -0.34435359385201        1.35125702453445
H            6.61313275151225        5.47496511080273       -1.05477377333572
H            3.18689946031564        0.23585460228702        0.26554016647695
H            6.01086956307582        3.84600473129579        4.20295099337287
H           -0.60426444909881       -5.25456543023427        2.66105928342520
H            0.66266443077699       -7.37467394533962        1.69962206785668
H            0.56704731112439       -4.61445694144539       -0.58617503630030
H            1.47642145381615       -2.55545807203390       -1.57100577164064
H            4.42891582088809       -5.57126629934417        4.88068874719609
H            3.36292029830525       -5.07839872774267        6.19328249117397
H            8.98344123438118       -4.54368804676383        4.07596107762451
H            5.39370821836009       -6.19140862866933        7.13687842362592
H            6.64131595690234       -4.36038523479339        8.17840061576343
H            5.03069065996532       -4.02219816456492        8.37550278876461
H            7.66921042152412       -2.46883582248707        8.10642380787933
H            7.30395345394931       -1.34712058979792        6.80354026962190
H            6.69443036841921       -0.78621550013901        9.44440568355236
H            5.18330637141039       -1.43646910995664        8.82082562372377
H            8.71100143198792       -0.67004921138584        2.27202038401824
H            4.15417733087253        0.59734324300882        6.53128845934937
