40
 energy: -6.369903194612 gnorm: 0.000822016481 xtb: 6.5.0 (97a52f5)
C            1.80114965214619       -0.45996222050707       -1.04709832462785
C            2.39247824398901        0.03596655530685        0.25431820321923
N            2.85600104025460        1.43417697207590        0.14556404225045
N            4.12089938094493        1.54324981883673       -0.10263862664289
C            4.60490429353230        2.80471860799726       -0.24536663710267
C            5.97648854753152        2.96828240935500       -0.50492059287067
C            6.52777015557325        4.20274638888321       -0.66403196301450
C            5.73792479123189        5.36388775618223       -0.57750484510249
N            6.29833954077561        6.63388947762995       -0.74454533530274
C            5.47105085256253        7.83817193762926       -0.83064957500163
C            7.74440541999308        6.82971466914635       -0.85362190473507
C            4.37898139392096        5.20831132701591       -0.32063556495855
C            3.79378143470024        3.95757379688372       -0.14975923826818
C            2.38442759563720        3.78748661781493        0.12477613182008
C            1.48365520703363        4.85199648539856        0.24945356068803
C            0.14890161330985        4.63798960914131        0.51492572363691
C           -0.80431784820802        5.77420774898664        0.64049016998850
C           -0.30241020095376        3.32726167584966        0.65110638463547
C            0.55991490414507        2.26984395947051        0.53341871467838
C            1.91557921815496        2.47946743557955        0.27206835662314
H            1.46627415389465       -1.49618299517838       -0.97660994630131
H            2.53488665883534       -0.39989022348154       -1.85224389750493
H            0.94690343917405        0.14697066418742       -1.34940274647671
H            3.26115367836420       -0.56757855836505        0.53521294853916
H            1.69061033888703       -0.05120071441725        1.08847721451461
H            6.58735046282044        2.08559297818193       -0.57801646126286
H            7.57820735460886        4.29309711326154       -0.87366465654258
H            4.66505286486383        7.68596959109204       -1.54503646409926
H            6.05882350429036        8.68939212417688       -1.16641927477120
H            5.05009403681814        8.07025675414736        0.14513634413788
H            8.25528714340046        6.27979370177650       -0.06701467785596
H            8.00270540865231        7.88075740313527       -0.74787377634841
H            8.09343908415212        6.48116655753016       -1.82297360027609
H            3.77094229218095        6.08659570430462       -0.23960248578744
H            1.82812185500833        5.86220181809929        0.13865159643532
H           -0.28357154788613        6.73193307519437        0.64227478364375
H           -1.37159010726195        5.70299509807714        1.56887306592120
H           -1.51138713485146        5.77836151049829       -0.18928113093462
H           -1.34566310059485        3.15330090025291        0.85203791435191
H            0.18117437836897        1.27006646884916        0.64254657070537
