43
 energy: -8.454980606892 gnorm: 0.000764970188 xtb: 6.5.0 (97a52f5)
C            1.66177278347055        0.26111187659466        1.14577501517542
C            2.51963521422300       -0.19595082864829       -0.02229651000894
C            2.92813292055218       -1.61890813347980        0.09668112679519
C            2.14291566734828       -2.73497347632756       -0.11429589309014
C            0.71958376805356       -2.69155321977909       -0.56003160936087
O           -0.12587302495294       -2.20112338124697        0.16484113087413
O            0.46608980548172       -3.17938481678209       -1.81377906450784
C           -0.89492666139690       -3.08777156716219       -2.10056653081486
C            2.92236819988319       -3.88554377880180        0.15769132953493
C            2.50467640173562       -5.29443668534882        0.10835164636891
O            1.33995591876148       -5.59526934377888       -0.08816780435657
O            3.49886295627917       -6.21860415705456        0.30623762496797
C            2.98236206608932       -7.51182571975742        0.23428320321209
C            4.18789030487968       -3.42811366751386        0.52895734143424
C            5.35784770872130       -4.09078365982900        0.91345965906186
C            6.41826211982247       -3.31533074868812        1.22667180635803
C            6.33536691787665       -1.89855008998899        1.16275678412504
C            7.50704353723559       -1.07671546093191        1.51063579394670
C            7.31937134718101        0.24370926611782        1.91149255501402
C            8.38927629666028        1.04428275477349        2.24206617121464
C            9.67284095582330        0.54330200186846        2.17263067545442
C            9.88177627581018       -0.75865842908237        1.76593174751292
C            8.81286124066961       -1.56173995618432        1.43576483988257
N            5.23365447645624       -1.26344396779604        0.82028196240917
N            4.18202383937440       -2.04304515490769        0.50051154256709
H            1.37090548368235        1.30934976061299        1.05659749218843
H            2.19307340984048        0.14132679301057        2.09077231649307
H            0.74910302248874       -0.33349362610750        1.21152331166345
H            3.42295033189434        0.42105081973245       -0.09773364895252
H            1.98368075226050       -0.05817995403123       -0.96915344810701
H           -1.08011377014747       -3.50330762055779       -3.09365475108072
H           -1.19895746905212       -2.03890903478831       -2.07323381131749
H           -1.45559761235275       -3.65299464930797       -1.35222980591708
H            3.79185300198949       -8.22985582332144        0.38193929985399
H            2.52804909739920       -7.66196765178723       -0.74772021097962
H            2.22615754984770       -7.63919655895582        1.01212278432647
H            5.38618934315380       -5.16485182971213        0.95526614049617
H            7.33333121771469       -3.77550143345866        1.55460273042111
H            6.31592743656568        0.62948989290928        1.95961403857127
H            8.22432004944475        2.06216797614567        2.55476662665554
H           10.51127686818813        1.16922731474186        2.43084516874077
H           10.88521873552790       -1.14624527891622        1.70162420111975
H            8.98939151551291       -2.56522875247405        1.09136702205461
