62
 energy: -11.521350068374 gnorm: 0.000810885316 xtb: 6.5.0 (97a52f5)
C            1.86130218875318       -1.16880729550589        0.43339746963744
C            2.66368338896372        0.11000438250111        0.25034716641334
C            2.76899502634781        0.90857942516025        1.51277361004419
C            1.92031714047391        1.95900770932319        1.89297905962793
C            0.80180777198722        2.52306300158168        1.10758175420485
N            2.32610806705757        2.39840547867544        3.10772056729934
C            3.40857376820867        1.65937098874332        3.54988580648751
C            4.02959008962693        1.86849691449665        4.82702278944376
N            4.14806266678994        3.05939429134036        5.48367751086521
C            4.82880830234813        2.96607089210920        6.68645317216265
C            5.11001220790982        4.04182798585647        7.52759819261579
C            5.69594968181355        3.82662481211239        8.87494801910619
C            4.81852701011455        5.32779058897848        7.04381534560182
C            5.09577346730705        6.64006829101402        7.54576223476700
C            5.83422152528802        6.99254989837552        8.78419258461233
C            4.55152925282808        7.55459543940711        6.64803050840654
C            4.54955033140527        9.04495194201584        6.78843074175090
C            3.50415556604543        9.53986475693834        7.77561408035680
C            3.93800562018315        6.83477483057563        5.59084224170431
C            3.21879996865290        7.38199517261804        4.42498703081744
N            4.13551290761379        5.53950559770997        5.85170402503208
B            3.58795682391740        4.40430195397936        4.97614039973748
F            4.00805479891521        4.61511586799751        3.66773052873383
F            2.19898035866488        4.42057172061936        5.08642935619971
C            5.15637029927074        1.54913727619197        6.83057061077518
C            5.82419559554618        0.82393225353745        7.81383994144903
C            5.91608780099198       -0.54762811037189        7.69425731053702
C            5.34550890240954       -1.21028052007262        6.61477466350561
C            4.70185491269774       -0.50896678740314        5.61877130830766
C            4.63702879632554        0.87987288476153        5.70122416352067
C            3.70503036206715        0.71997344835605        2.53196433142818
C            4.86581768475184       -0.20363633526693        2.46568130435015
H            1.78820189429416       -1.74448920740159       -0.49166078233745
H            0.84587864859136       -0.95070735468682        0.76833013364055
H            2.31566053832689       -1.81263876443854        1.18821751403980
H            2.21297757174811        0.73377410377990       -0.53134113861784
H            3.67199229047770       -0.12055459749463       -0.11431031584062
H            1.16112289059603        2.95362455705225        0.17239177214310
H            0.29562075295516        3.31094139612236        1.66575293369264
H            0.06617034048896        1.75394679095521        0.86983177792880
H            2.00853873195414        3.20112825808076        3.64414986095026
H            5.24928537541867        2.95621391308553        9.35529853084615
H            5.49839049541482        4.66770795404195        9.53631112468343
H            6.77504100788441        3.68085781558759        8.81732762126652
H            6.73448527696779        6.38667962352120        8.89080208123528
H            5.20983313043942        6.85067977985908        9.66686681120164
H            6.15106322650464        8.03525313249234        8.77273560446729
H            4.38261179649724        9.49587128002445        5.80249563130152
H            5.55035163311370        9.38009298076845        7.08641491850227
H            2.50166772021958        9.23710322207855        7.46896483372045
H            3.50783433842707       10.62796668435667        7.86745687515849
H            3.67271287792739        9.12431764004495        8.77029472067412
H            3.90255305926302        7.90396387340241        3.75533866272524
H            2.44151711170215        8.08003435573524        4.73650700519729
H            2.74453954072343        6.57795741313164        3.86210692782697
H            6.27851542127461        1.32355439666784        8.64897291478831
H            6.42765541122153       -1.11434275684619        8.45489860822445
H            5.40665967095700       -2.28458622575131        6.55579688021331
H            4.21980695653535       -1.02289666468652        4.80747584236111
H            5.58630298943891        0.00884249011265        3.25551584330467
H            5.39133962008894       -0.09558782577442        1.51643367531114
H            4.54835739526753       -1.24284702018328        2.55444530189856
