78
 energy: -14.844438878929 gnorm: 0.000961282569 xtb: 6.5.0 (97a52f5)
C            1.44552935505560        0.78572581667924       -0.67215556232000
C            2.52499360402277       -0.14056036059223       -0.13350333367666
C            3.12167729847625       -1.01340175878722       -1.19332197398379
C            4.15017708848330       -0.65644940857965       -2.06482809280750
C            4.86945337129278        0.63460766099899       -2.11641826056952
N            4.34443285563184       -1.69645913451649       -2.92183222516431
C            3.46800415744198       -2.71942195853732       -2.63675416895747
C            3.43100398861964       -3.95431943931852       -3.39111490641145
N            3.70157148485749       -4.08553669939721       -4.71031889284121
C            3.54392340625836       -5.38685559086366       -5.17373712946856
C            3.68727549112027       -5.78090703001466       -6.48072818466557
C            3.98986855145537       -4.81309019229394       -7.43560474462262
C            4.16716674709737       -4.90836168245799       -8.85490493215773
C            4.05192259330575       -6.14535842002361       -9.66554968709645
C            4.43245732633008       -3.63885667385705       -9.33175031853228
C            4.69625555439407       -3.31586181276873      -10.76852962146877
C            6.17991846480566       -3.30058651012274      -11.10566734440913
C            4.45372552850845       -2.73299864197106       -8.21100213141458
C            4.71731237151152       -1.33745639188780       -8.11030899751892
C            5.09840843161142       -0.50052165337277       -9.10270247689316
C            5.35850072728129        0.90276340562819       -8.94246944335220
C            5.24433806927995        1.56067662083518       -7.70633297462006
C            5.50331583302022        2.89865697528888       -7.59114274955870
C            5.89192419636025        3.66590615906969       -8.70482238870012
N            6.15665685208481        5.02263363237710       -8.58753873581445
C            6.07563290271506        5.71699156693283       -7.30081000035671
C            6.53735857908052        5.83745440961630       -9.74338268447082
C            6.00358089809670        3.00531258942792       -9.94198494964278
C            5.74551598099674        1.66742340278433      -10.05520637756103
N            4.17243283448222       -3.49329150046173       -7.12397040667491
B            4.16733674697639       -2.96728095597717       -5.67475478139815
F            3.28642557837446       -1.89559346282289       -5.59416314246782
F            5.47202211887141       -2.58801540609884       -5.36605133919644
C            3.18455874874000       -6.17424166936298       -4.00993072473675
C            2.95325406738484       -7.53567663697231       -3.84373004637437
C            2.69169603639994       -8.01190299680112       -2.57740807711129
C            2.67579328827689       -7.15363414660574       -1.48065557171892
C            2.90247282673407       -5.80344224632798       -1.63193684686052
C            3.13297600422562       -5.29462692883890       -2.90985962505233
C            2.67432731598473       -2.29430914417991       -1.55685847659012
C            1.50035003993039       -2.98978816999232       -0.97134154357990
H            1.01581495651756        1.41450850200054        0.11051358402966
H            0.63065399059476        0.21912276663950       -1.12530085454722
H            1.84319872804919        1.44574725672867       -1.44454197209541
H            2.12003721256041       -0.77520589125411        0.66439091195058
H            3.32433359975968        0.44092860865592        0.34194071308240
H            4.22867281021492        1.42019650213036       -2.51742414191131
H            5.74936627706518        0.56073355937895       -2.75552572359522
H            5.20228797181845        0.93869216613169       -1.12383349769355
H            4.92935488280542       -1.73822126997999       -3.75220243009255
H            3.54174962625620       -6.80643998296735       -6.76210371808909
H            4.02020654426349       -7.03159962053976       -9.03258342447904
H            4.90257665239010       -6.25133733515193      -10.33853956766954
H            3.14300023590619       -6.13177125674323      -10.26707320051177
H            4.22097204802021       -2.36122306710493      -11.02080701905036
H            4.17814303346252       -4.05065183107256      -11.39728039060618
H            6.72045703801057       -2.58163933963842      -10.48880160811857
H            6.36098938696472       -3.04286670483966      -12.15106266367369
H            6.63294893564302       -4.27611273379547      -10.92292924657472
H            4.60176876820752       -0.93486515758401       -7.12194218926281
H            5.23412625607252       -0.89808816462401      -10.08920873889710
H            4.94850998187670        1.00574081517379       -6.83472318966790
H            5.40610014565349        3.37668033352874       -6.63309736004519
H            6.74470323281069        5.24920142534058       -6.58135214066458
H            5.05738191212746        5.67731957587479       -6.91895708885072
H            6.36218925210341        6.76215951185626       -7.39735623193458
H            5.76763729658250        5.78008782693743      -10.51050419003370
H            7.47925482071152        5.48191705036427      -10.15639755281775
H            6.66009415036842        6.88246697537799       -9.46684021801619
H            6.29968362797185        3.56385566244781      -10.81157907927467
H            5.83813848526801        1.18196910675013      -11.01147519242563
H            2.99068379174585       -8.19542691239791       -4.69248989415911
H            2.51119709945128       -9.06423958122152       -2.43152686516257
H            2.49129581498806       -7.55393603336389       -0.49724723084750
H            2.93954289499822       -5.15126886448903       -0.77867037923102
H            1.17665572465786       -3.81800613116920       -1.60184227712869
H            0.65494646698534       -2.30812176628765       -0.87473998353066
H            1.72912903156243       -3.37837161692098        0.02142792238341
