53
 energy: -10.189702685292 gnorm: 0.000887132936 xtb: 6.5.0 (97a52f5)
C            1.84484146447238       -1.18200391012400        0.58330428427794
C            2.66129287034757        0.01181979561814        0.11381857110934
C            2.78580510829073        1.07354741096279        1.16198713046243
C            1.95914805405586        2.20005882435514        1.28788864942886
C            0.84754175466855        2.59112242159678        0.39541410975799
N            2.38073896462527        2.90175882111695        2.36583925738473
C            3.45044178737299        2.26519698622056        2.96791003114678
C            4.08491523803290        2.76601646132397        4.15275254000764
N            4.20093069699964        4.08262672200222        4.50262964797151
C            4.91725971580525        4.27236498490946        5.67075146451120
C            5.24823117704379        5.49657763015104        6.20865078144409
C            4.86726311835511        6.64109721443788        5.52554880938919
C            5.08434237023527        8.02262403370543        5.80328435497840
C            5.79137788811078        8.57843285017171        6.98143480931826
C            4.48069887320249        8.73968509051120        4.78443357905752
C            3.89917605747862        7.83700029961287        3.86550423301144
C            3.11349797953179        8.15933200839100        2.66017646108338
N            4.14573029357348        6.60891602333911        4.33787274668932
B            3.62866786060521        5.29388654527809        3.72500916107952
F            4.05178186213452        5.23038927823358        2.40353473199255
F            2.23962932857186        5.31222795284663        3.82675827748167
C            5.24628416868440        2.94268639184155        6.15262167836257
C            5.89327654715216        2.50964701711917        7.30328304827961
C            5.98834736631209        1.15370131537358        7.53920849769734
C            5.43095442363100        0.23601406090697        6.65535067583874
C            4.78803128712210        0.65341761299550        5.50876861921128
C            4.71767816836509        2.01645127191999        5.23002137999872
C            3.72231401402616        1.10812744989056        2.19781946882401
C            4.85870826414454        0.16596462222705        2.35708220690296
H            1.75557506123571       -1.94799987293527       -0.18959811646356
H            0.83557061296545       -0.88076519576378        0.86708193552146
H            2.29884895410157       -1.64717590318115        1.45927070045888
H            2.21197607102798        0.44884207831279       -0.78608176504020
H            3.66348242977384       -0.30813961149312       -0.19476727662336
H            1.21353730097822        2.81097165369744       -0.60755486693006
H            0.34527555356414        3.48202553194003        0.77186870732237
H            0.10804246617491        1.79357424686806        0.32313521167946
H            2.07579679208566        3.81013803035193        2.70441891980570
H            5.81084777985294        5.56363390888687        7.12044893804224
H            6.74855506513090        8.07824557983211        7.13199445816546
H            5.19714410243170        8.45104498358603        7.88679357452465
H            5.98662900676297        9.64365137854748        6.85402873434716
H            4.45173952977478        9.81298024211010        4.70702333725464
H            3.56636243462583        8.98048134271872        2.10425119532302
H            2.09575743228907        8.44515138976881        2.92648918253551
H            3.05803632850709        7.29232921323594        2.00172266409317
H            6.29693026089034        3.22660865012071        7.99601820293791
H            6.48604278477275        0.80211858175725        8.42792237788669
H            5.49348282251086       -0.81709378492254        6.87508962096876
H            4.30744917513977       -0.05412076673875        4.85857884089287
H            5.60447333226122        0.55975560798314        3.04744789738776
H            5.36052114636562        0.00019514703731        1.40355447832014
H            4.51911685381822       -0.80159961866076        2.72703384089878
