52
 energy: -10.054813228873 gnorm: 0.000712641689 xtb: 6.5.0 (97a52f5)
C            1.16377569504701       -0.56233499668702        0.43230157401050
C            2.23258418528349        0.10997940335278       -0.41572417235120
C            2.66735201120014        1.42776729205503        0.14430899437158
C            2.05167890626735        2.65873993075566       -0.06709210846029
C            0.86441240306133        2.89469096303480       -0.92539532045689
C            2.77542307459906        3.63523078193997        0.69201147984115
N            3.77356654763895        2.91385620273677        1.34901073904955
C            3.75016302817592        1.61169758247910        1.04420537529953
C            4.69824972476500        0.59019183730663        1.52717958525812
B            4.86609836221381        3.59323769524164        2.18801927895221
F            6.01343124949790        3.60861810762085        1.40095922641135
F            5.01679290434464        2.86933353227720        3.36359640801774
N            4.47263351075625        5.04586583281399        2.53148731031733
C            4.99219532892022        5.92328612693827        3.47636542253449
C            5.94097675847374        5.80671603644034        4.51198231573967
C            6.96008958225837        4.89089645122296        4.73530247813170
C            7.47068805619544        3.86049784886685        3.88317250141060
C            8.52575466708678        3.24215039052907        4.46811425216849
C            8.76210206467757        3.85719779517321        5.74763187604090
C            9.70956216118531        3.60336186814545        6.73485355798222
C            9.69106919797946        4.37000317862481        7.88354530051213
C            8.74722182585947        5.37569766220092        8.05626942324415
C            7.80169265095972        5.63864743896495        7.08388327550079
C            7.80711838407119        4.87630590352608        5.91969752973015
C            4.22276945897254        7.12623121872036        3.32213453377491
C            3.31529019787340        6.96253250609870        2.32630110922037
C            3.43940935634942        5.63004899789695        1.81716245489600
C            2.61832851252832        5.00682630977393        0.86530169064409
C            1.56536047540360        5.77417025239966        0.15137778219985
H            0.85574219801638       -1.52439152552445        0.01804432192010
H            0.27359629639320        0.06311011522797        0.51331255713331
H            1.52285563853125       -0.73904597664106        1.44733670599368
H            1.87549621825691        0.25513561199510       -1.44235215095370
H            3.10866843244261       -0.54325890998834       -0.50900555131040
H            0.36197045461115        1.95982676351934       -1.17265967018547
H            1.14990541192957        3.37384808436861       -1.86219624868141
H            0.13523642845790        3.52783665568805       -0.42011638367228
H            5.39578082328851        1.02544195286583        2.24223971591300
H            5.27844531778663        0.17684745946930        0.70205342762287
H            4.17395025178368       -0.22702553397546        2.02264388338098
H            5.88415703251272        6.59282124606864        5.24660677993244
H            7.06356567392495        3.61682246495835        2.92271089864589
H            9.09248487982367        2.42396326993730        4.05751097331115
H           10.43605128472169        2.82278546789237        6.59358708323316
H           10.41749484449347        4.18457142317330        8.65755352982128
H            8.75113797387673        5.95716835646872        8.96341246207607
H            7.06790872638143        6.41292260666667        7.21964409723345
H            4.35528062399175        8.02079134084084        3.90732550730047
H            2.59397807010076        7.69547604848074        2.00849693026107
H            1.79620297394110        6.83901435728735        0.12995344378372
H            0.59641307155687        5.65090126540071        0.63571147582295
H            1.47859709152981        5.45040330538279       -0.88525766256909
