58
 energy: -11.457461292390 gnorm: 0.000643963426 xtb: 6.5.0 (97a52f5)
C            1.28924133787039       -0.28147836084660        0.21438911458713
C            2.68431306305099        0.30328141523948        0.37139429422325
C            2.99822340790334        1.33246672939781       -0.66891972891794
C            2.59412774145474        2.66403264823784       -0.66023179592899
C            1.79271381311709        3.32086186337785        0.40207929708113
C            3.06619567596161        3.26386223116717       -1.87290752073007
N            3.72914330669970        2.23450777437885       -2.54906752973030
C            3.71355917902637        1.08323356273509       -1.87081513135664
C            4.33718617560376       -0.18421227999064       -2.29512088855383
B            4.47053182153276        2.44872968246680       -3.87721150685850
F            4.15541934097145        1.40622989561034       -4.73425822141004
F            5.83667052483044        2.49334365135684       -3.61980360529381
N            4.04278071016952        3.80978271053497       -4.46758290117971
C            4.46779733192858        4.33385159386791       -5.67334894421695
C            5.02101602971519        3.65102329616652       -6.79971107796042
C            4.44599914688166        2.57128687720303       -7.45251312388758
C            5.01121512383557        1.88057779910398       -8.60074808237881
C            6.25369824204054        1.99690508637356       -9.21943877122204
C            6.53079436283870        1.20496460183433      -10.31451598490834
C            5.59114311405993        0.30368740868355      -10.80107785817808
C            4.35331776346431        0.17741742040710      -10.20084169522956
C            4.06264563827557        0.96749981417605       -9.09813879785743
C            2.86238687966549        1.07084111452900       -8.27473116810145
C            1.63520404340767        0.42812040341164       -8.35446343662083
C            0.65324890607581        0.75000347587810       -7.43702786231578
C            0.88548193042314        1.69762910065970       -6.44739416760284
C            2.09988345442833        2.34209045773338       -6.36205740541727
C            3.10271150203411        2.03400067548496       -7.27748376480030
C            4.23711123693708        5.74877070165703       -5.57236648245125
C            3.64114834645917        6.01595036122718       -4.37882917861813
C            3.51162276227732        4.78652508806300       -3.64888582590579
C            2.97898215100832        4.56213040511797       -2.37248763897542
C            2.36417684471701        5.66557887112935       -1.59020496615517
H            1.07089792646370       -1.03298324975558        0.97580769204005
H            1.17078061936818       -0.75479461506918       -0.76161891611883
H            0.52597353486402        0.49465356658153        0.28766944560676
H            3.43599725326042       -0.49390583270357        0.32230102743775
H            2.80755246921348        0.74727845926852        1.36647588897356
H            1.60984719798424        2.64604340434908        1.23782329772429
H            0.82177400213332        3.63528990984176        0.01890177427380
H            2.30832660914288        4.19571408130236        0.79791957887687
H            4.82405991708751       -0.06406320137044       -3.26265123990708
H            3.59139756697376       -0.97378359494952       -2.38851053953308
H            5.09200331944694       -0.50723506219244       -1.57796636589073
H            5.88381930615409        4.09451272985795       -7.27128792099381
H            6.98108940314900        2.69195596554705       -8.83928525479571
H            7.48964208252444        1.28565577666114      -10.79961009830772
H            5.83067044470358       -0.30437417108247      -11.65789572264316
H            3.61993035326843       -0.51556795876692      -10.57347269583764
H            1.46144894159383       -0.30261047406761       -9.12438237597557
H           -0.30384727777487        0.25753233426804       -7.48794212661988
H            0.11124885428516        1.92316732204021       -5.73262897949660
H            2.31181673669101        3.03239856226743       -5.56781478891838
H            4.46925301713483        6.46771468090577       -6.33953556643829
H            3.34883130951822        6.99161813169476       -4.03130200319443
H            2.31775704621727        6.58901812413157       -2.16615767476793
H            2.94105947032708        5.87069946426484       -0.68809622188873
H            1.34338898760086        5.41793957059801       -1.29979785673526
