27
 energy: -4.789017808500 gnorm: 0.000924521075 xtb: 6.5.0 (97a52f5)
C            1.08957068197503        0.12434423257214       -0.00675938538003
C            2.55636255593783       -0.03973429329613        0.09138185195581
C            3.28558914296243       -0.56351161951003       -0.89043718079835
C            4.73745308248661       -0.75663096304483       -0.84494397722501
C            5.46201609516088       -0.82069027423245       -2.02862063789107
C            6.84456964273169       -1.00732596262704       -2.03617688077125
O            7.48703157660720       -1.05664304466832       -3.28245709497133
C            8.88469184814089       -1.22660636960328       -3.22069224011323
C            7.49249364930455       -1.13273279617934       -0.81099781143492
C            6.80079538377167       -1.08116345930954        0.39643611272753
O            7.54938301910162       -1.22444432564475        1.57447357185777
C            6.79489870933030       -1.18163273451202        2.76471367891239
C            5.41841204562221       -0.89318443038912        0.35901082739082
H            0.67955230140848        0.66458932328886        0.84931173487320
H            0.59247124780967       -0.84649796600919       -0.05553197851679
H            0.81993101656498        0.68066344472833       -0.90652644430223
H            3.05004632864381        0.28356980023296        0.99216786860372
H            2.78395377891019       -0.86098316254262       -1.79459814450399
H            4.95463570607217       -0.72064957479161       -2.97021709310290
H            9.27934445650204       -1.24349662001915       -4.23764796800829
H            9.12450793040556       -2.17309316880747       -2.73427136860500
H            9.33784145454925       -0.39400793853941       -2.68048340742923
H            8.55449757252959       -1.27739152378815       -0.77032498373473
H            7.47165576205666       -1.30760889301265        3.61089497449489
H            6.06553128732001       -1.99283387207133        2.77389472479351
H            6.29425027434202       -0.21646183172285        2.85492844270837
H            4.86175344975263       -0.86974197650078        1.27545280847017
