50
 energy: -9.720924318381 gnorm: 0.000966487230 xtb: 6.5.0 (97a52f5)
C            1.36556816187033       -0.30444124803429        0.07941484675201
C            2.86996387067180       -0.10638946624155        0.18623610596247
C            3.29729571185484        0.35088359111253        1.54571412869338
C            3.32251340489385        1.66475770216902        2.00524246253578
C            2.94835617501994        2.85718334591466        1.20418183225626
C            3.75582666045468        1.63408467178836        3.36947407947284
N            3.93306563697712        0.28607715646925        3.65691131682838
C            3.68008947775571       -0.50459205356138        2.61015850031018
C            3.80033538318839       -1.97440627318571        2.58929409032181
B            4.43179326149339       -0.23425920522449        5.00974671928195
F            5.70700504047325       -0.75478421534239        4.82206870226720
F            3.53913184882124       -1.19601993721458        5.46750596122381
N            4.49061146536914        0.92823645564272        6.01629534940169
C            4.76524464196153        0.79171638542326        7.34639074283830
C            5.01821244901572       -0.41587961810068        8.06582200005280
C            5.38338891655858       -1.66007122419957        7.52725352837812
C            5.50723421842384       -2.55979763393648        8.56694412975463
C            5.21280137825320       -1.88493288925221        9.74494043596113
N            4.92718937248111       -0.59530998249501        9.44611373107025
C            4.70790991547017        2.13481654985416        7.89391764337790
C            4.93390620231922        2.61915020442132        9.17976915312810
C            4.78867705892005        3.96661393406386        9.42586454291555
C            4.41888160324909        4.83765232262587        8.40924974585253
C            4.21079936383338        4.38013233266240        7.12450274239333
C            4.37574459375105        3.02522991516446        6.85012376513192
C            4.25265176252178        2.23615301014549        5.62729094389536
C            3.97252221834028        2.64163587941151        4.32286896650948
C            3.91618185918293        4.08129451528222        3.96272394827102
H            1.06555269372236       -0.63966570449505       -0.91537416712115
H            0.82941626954103        0.62143138588714        0.29212794705316
H            1.01579360996449       -1.04697051722518        0.79813393163104
H            3.21767457256511        0.61626942241990       -0.56185820856395
H            3.39298671090360       -1.03977511255021       -0.05522266374754
H            2.36953957907109        2.57668868961535        0.32469247267030
H            3.83477930667782        3.38840061546245        0.85670033553926
H            2.33264090527987        3.54329828708759        1.78561162974719
H            4.07691340657281       -2.34521437350078        3.57616688403124
H            4.56780357586922       -2.29287771699472        1.88374978137383
H            2.85654568511151       -2.44054529343380        2.30633620245620
H            5.53276361658907       -1.86415056618569        6.48215876017940
H            5.77429607751077       -3.60097058542925        8.47988549609612
H            5.19764548590865       -2.31060396025001       10.73669605272980
H            4.56915736851881        0.10121743092117       10.09832716192978
H            5.24331320459543        1.95241146073266        9.96137072857392
H            4.95987857393405        4.34883499056528       10.41877905549225
H            4.29560570874764        5.88598521817781        8.62643601491902
H            3.90236008711896        5.06143346501784        6.35363922225461
H            4.68379615858402        4.64366911790451        4.49356613549497
H            2.94169312634204        4.50961872012825        4.19809879932959
H            4.11186262374747        4.23542080078090        2.90350831309293
