76
 energy: -15.157355801648 gnorm: 0.000342593989 xtb: 6.5.0 (97a52f5)
C            6.65639163211566       -0.37085841960813        0.65737420937606
C            6.55273878417354        1.10410592268985        1.01508894057669
C            5.31109876417072        1.42283521303086        1.79614768351890
C            5.31578551522593        1.37786540355820        3.18340862945395
C            4.16461200206477        1.62892837166476        3.91708820329813
C            4.19560914872178        1.60986081853084        5.41782942668871
C            4.55544886132850        2.96211864245883        6.01395349193892
C            2.99839423471967        1.93908742224579        3.24119579598595
C            2.96087422617174        1.97780132647241        1.85242315354947
N            1.73430830936981        2.26149918115401        1.15885703074998
C            1.57251338832550        3.14354641548107        0.06827905476371
C            2.47665943224454        4.00622612105081       -0.55023380328348
C            2.04435067441213        4.77413407938009       -1.60506227858663
C            0.72369155278345        4.70097977676244       -2.05612538250849
C           -0.18308900155786        3.86062044145590       -1.45419359936525
C            0.24137352484575        3.07653240034313       -0.38100293426455
C           -0.45144881515762        2.12178760263505        0.45211626541580
C           -1.76410600133516        1.66392967141226        0.42960061305130
C           -2.12625601319489        0.71656009298161        1.37583778148896
C           -1.18647297020222        0.22726916904982        2.32128512794106
C            0.12787976475657        0.67960389597905        2.33888197131654
C            0.48713795039300        1.63545266721177        1.40020090325428
C           -1.87051127998033       -0.74983939188364        3.13542400959970
C           -1.44844954456676       -1.52702506833895        4.21458207121393
C           -2.35219383750064       -2.37589766563231        4.80916114657011
C           -3.66869323700171       -2.46092853474636        4.34801228515740
C           -4.09770235113700       -1.70214980327544        3.28529794710236
C           -3.19316182844878       -0.84031622141538        2.66628496353705
N           -3.35987500050837        0.05366938990823        1.58634080718873
C           -4.54925986078044        0.21853127734125        0.79626614474751
C           -5.22535282131823       -0.89032122938693        0.30171625575899
C           -6.37054991768076       -0.74938716910786       -0.46041194883198
C           -7.11609594347466       -1.95860215157504       -0.94513449418981
C           -8.10591918750812       -2.48483378041734        0.08314555033810
C           -6.84694872380997        0.52814644004255       -0.71996196021888
C           -6.18744681838381        1.65408131170762       -0.24694990801132
C           -6.74046412794969        3.02534564370756       -0.50590815980291
C           -7.79719424066131        3.43113351215115        0.51029985306322
C           -5.04480588225023        1.48597310091336        0.51449073620657
C            4.12673525118312        1.71305954603909        1.14380559876818
H            7.56150847740070       -0.59389871754186        0.08801400969707
H            5.80183290925462       -0.69038911936980        0.05808154044790
H            6.66867349691177       -0.99244114760592        1.55458906158174
H            6.57107006300797        1.71968813956953        0.10666453582248
H            7.43090358454836        1.41960756579653        1.59269533782799
H            6.22905900142421        1.14197131156200        3.70022731539852
H            4.90727620170215        0.84382167336165        5.75122803026751
H            3.21937053336127        1.27543685555393        5.79149388073199
H            5.53852197271376        3.29217789928438        5.67319825369834
H            4.57412043399626        2.93879665931270        7.10587095350144
H            3.83812723971108        3.72745582011966        5.71201338044515
H            2.10535932753651        2.16429309742059        3.79544203464445
H            3.48871702791687        4.06699298017801       -0.19195123350900
H            2.73336299482133        5.44547066010342       -2.09121794251051
H            0.41161297651230        5.31444209357654       -2.88557383415855
H           -1.20268814876323        3.80046180775107       -1.79239899448129
H           -2.46579028635797        2.02065675383436       -0.29970151253922
H            0.83969697922073        0.29241607880330        3.04225744535721
H           -0.43461014146155       -1.45092244932443        4.56661273017520
H           -2.04255943131677       -2.98219745941891        5.64476429408905
H           -4.35823733105098       -3.13088641720202        4.83529584699336
H           -5.11253001184762       -1.75510325381847        2.93374015991309
H           -4.84416566399249       -1.87280018843985        0.51350048630111
H           -6.39384492820918       -2.73968427636987       -1.21480754532650
H           -7.63294859457133       -1.71054489394531       -1.88090806962746
H           -7.59892990089661       -2.76601526315832        1.00804927816138
H           -8.64701545338519       -3.36253195454818       -0.27741287439723
H           -8.84454242284551       -1.72384973844877        0.34170836955674
H           -7.74929527501836        0.64837962954568       -1.29280749671293
H           -7.15475372391647        3.05761590926898       -1.52166962679404
H           -5.91613924483238        3.74983395339248       -0.50955345794847
H           -8.63950046705246        2.73689465105303        0.49935513676965
H           -8.19107224629878        4.43163794128990        0.31796646841867
H           -7.39007698250856        3.42469979023225        1.52306516162348
H           -4.53855495640672        2.34596175112912        0.91390286837663
H            4.09795637821599        1.71728643502172        0.06930482565059
