68
 energy: -13.999185875777 gnorm: 0.000656650897 xtb: 6.5.0 (97a52f5)
C            1.89424283039280       -0.20620657344563       -0.73525250909191
C            2.17261178598776        1.19672309061079       -1.25432874231588
C            2.50996475907899        2.16179410614713       -0.15535584736966
C            3.81885426722524        2.31098168657749        0.27819427802373
C            4.12195919519883        3.15870087065757        1.31952188734986
C            3.12649905338170        3.88566394463252        1.97018963015549
C            3.46790226736261        4.75454556493556        3.08932405442709
C            2.61686771897062        5.55035369317168        3.80640181546807
C            3.23853759523779        6.25607877842636        4.86204908470850
C            4.57753844793422        6.01654242823630        4.97311248592263
C            5.43681677883757        6.58355381650948        5.98628427163990
N            6.75821189786755        6.38706817259774        6.06974813174281
N            7.19899876587349        7.01490865932427        7.11711103442983
C            6.16277887637406        7.61490303176713        7.71260322668126
C            6.24463588907610        8.37964911681008        8.94761761183844
C            5.10497799537861        8.98316144438247        9.47313047838557
C            5.15839430480372        9.65157731532005       10.67104345551584
C            6.35338537948808        9.73425973477324       11.38273283409971
C            6.40772390940946       10.38030936191025       12.68515513306725
N            5.37206919716954       10.97339112901060       13.28841380288332
N            5.76839941109301       11.40233555581176       14.44805274899944
C            7.06033048934834       11.08432578928073       14.59542959940036
C            7.85266821457622       11.35350716371814       15.77300661623217
C            9.18694312579321       11.09242040648292       15.88960958294387
C            9.72355404618063       11.41418395002502       17.15706260466076
C            8.80984074223812       11.92519211714196       18.03785934073221
C            9.05180769209699       12.31932995504139       19.42017145539079
C            7.99902189696274       12.76632922271541       20.21677351398909
C            8.20311224235651       13.12544412933684       21.53009869167616
C            9.46580800579012       13.04669515441207       22.09806334474327
C            9.69334047368733       13.46727986017651       23.52086958392304
C            9.99546433478485       14.95239579314445       23.65236614141921
C           10.52168210350701       12.61552385654250       21.30847790259837
C           10.32144060783831       12.25454979062440       19.99451829126071
S            7.25186937327278       12.03461561981938       17.25492700828345
O            7.51110163069654       10.44446305446814       13.48066336126789
C            7.49664750664683        9.14521034235415       10.84893147688304
C            7.44412095556192        8.48013147786306        9.64931050653409
O            5.01961046231123        7.37759430643704        7.01147902773343
S            5.08482877289806        4.91435060513306        3.72904871869336
C            1.81188680871789        3.72864641450659        1.53092274577302
C            1.51251236786331        2.87889596545646        0.48915056921623
H            1.64547736492442       -0.90054558898145       -1.54016271192360
H            1.06173365641166       -0.20481528166364       -0.03012934179602
H            2.76058168217796       -0.60813640527546       -0.20773883376691
H            1.30691105810096        1.57610129370604       -1.81097710760587
H            2.99502938727175        1.17849254623901       -1.97993698848753
H            4.59944860021534        1.74876186120891       -0.20505350029386
H            5.14008807484698        3.26340790459723        1.65077117129901
H            1.56165853089861        5.62837204108543        3.59833086594061
H            2.71144858164240        6.91788936237384        5.53217189428645
H            4.17876034314799        8.90234220682963        8.93057454463507
H            4.27438780498457       10.10511779894557       11.08377976728733
H            9.76682414582748       10.66774190104650       15.08447725948059
H           10.76008454723380       11.25161409377518       17.40595126192358
H            7.01396227225074       12.82508802845328       19.78835919763580
H            7.37877312361970       13.47239720877077       22.12927412620351
H           10.51283102595479       12.87281254911727       23.94321866944318
H            8.81111059486742       13.20328853184951       24.11696797867977
H           10.88772809015601       15.22227355524100       23.08554580141610
H           10.16054036021601       15.24735092041222       24.69046338803936
H            9.17354620347636       15.55540573076415       23.26365576234011
H           11.50840936110703       12.56528529815444       21.73617464321884
H           11.15442286105677       11.91905473562204       19.40307929842705
H            8.41803367722782        9.20755262506888       11.40204813692981
H            8.32441187944831        8.01210354700904        9.24487360469135
H            1.02166135022178        4.27059936199861        2.01890451541797
H            0.49166324360912        2.75832427074836        0.16913764660534
