86
 energy: -18.760283858852 gnorm: 0.000827975134 xtb: 6.5.0 (97a52f5)
C            1.41770885301319       -0.79256209143153       -0.69668389457792
C            2.45128657546702       -0.40769466110247        0.35116885082129
C            2.94998455128594        0.99809278543436        0.18251000421998
C            4.07592749079419        1.26485905473990       -0.58372571237101
C            4.51348225179405        2.55811983332938       -0.76573420886410
C            3.83431701390899        3.62655643721578       -0.19030200729717
C            4.30117644897222        5.01082225532262       -0.38293597798404
N            5.37958669912496        5.17586774613536       -1.14845093879990
C            5.80641520869779        6.42762323559696       -1.31006401239984
C            6.99822980940754        6.65960962441085       -2.14486063769575
C            7.41451221189451        5.66871051491438       -3.03259974743807
C            8.51843833165007        5.84773642271788       -3.83033114474761
C            9.25629358250928        7.02523724630725       -3.76418987269482
N           10.41349529159515        7.21355600939011       -4.59405600267579
C           10.71462346705298        8.36466161773470       -5.35454591556838
C           10.01190252994524        9.55713896967445       -5.52878783875110
C           10.54166184223844       10.52491438657674       -6.34684920980923
C           11.76092170973664       10.32736678175841       -7.00104573012419
C           12.46257233311368        9.15571492420078       -6.84814670743283
C           11.93515955871718        8.16231670481587       -6.02158483391408
C           12.40386302529759        6.84320091898992       -5.66829299398315
C           13.54977320276472        6.12869220556859       -6.02132588802191
C           13.73068325607395        4.87174385761833       -5.49617782457215
C           12.79278784762779        4.31671874839950       -4.62106725294116
C           11.66086806440050        5.00831484531865       -4.26490912014143
C           11.45554638344373        6.28205284756191       -4.79563396419703
C            8.85273859422066        8.01424690656924       -2.87238319141935
C            7.74579490175218        7.83725414675891       -2.07735522844188
C            5.13634324063096        7.47829300634755       -0.71838910646957
C            4.02015600255805        7.21716195490484        0.04885026220847
C            3.26841812230740        8.30637775691545        0.69638380795930
C            2.40135911652547        8.00750714043987        1.74616810813811
C            1.67620485045221        8.99269653550740        2.37095930140909
C            1.78499109662946       10.31818657813374        1.96314242477559
N            1.01786865653180       11.34833496204214        2.60619485024714
C            1.50652157912613       12.59503277517485        3.05417466399756
C            2.79104555619732       13.13847175122771        3.02755956560610
C            2.99036634039659       14.39317632369296        3.54951625726207
C            1.93259851289981       15.11988370715552        4.10331587221063
C            0.66245235985740       14.59699352777470        4.14578499571954
C            0.44547189682139       13.32194205676503        3.62112318556543
C           -0.73771558505954       12.50002664853950        3.52499193918490
C           -2.06236134458139       12.71328462524909        3.90976189419994
C           -2.98705284223666       11.72682451507458        3.66405157808373
C           -2.61586883086078       10.53412452717201        3.03691182367056
C           -1.31625384251495       10.31072613735395        2.65291076794951
C           -0.36192179722870       11.29726828291032        2.90227555749587
C            2.64367091671317       10.62302612640957        0.91146712334369
C            3.37183405405600        9.63798995002427        0.28832197298349
N            3.60010207785683        5.96558637531280        0.22783427596486
C            2.70138029129376        3.35674855090675        0.56982976322871
C            2.26493611858861        2.06301409888273        0.75016864740894
H            1.06142756527482       -1.81658142922690       -0.56637847195522
H            1.83130742611260       -0.71205150144699       -1.70335447594801
H            0.54994320766284       -0.13225450690984       -0.65301404781088
H            3.30410862260272       -1.09718484609949        0.31659357460485
H            2.03259320720318       -0.51952720656481        1.35922295499372
H            4.60644875935995        0.44657265310239       -1.03981949924488
H            5.38792003912315        2.75942790225078       -1.35909540132409
H            6.84822050566789        4.75553309078713       -3.08724071261197
H            8.81629241528600        5.08512792798460       -4.52826293019039
H            9.06807291491806        9.69963785730093       -5.03409759416172
H           10.00887215129617       11.45087333140852       -6.48859770549671
H           12.15433133825668       11.10456470740859       -7.63545721927755
H           13.39963966199926        8.99379425361103       -7.35093925138552
H           14.26995198675868        6.56670955277154       -6.68959524109087
H           14.60983773045982        4.30690236163973       -5.75946415473059
H           12.96285600722012        3.33185674977896       -4.21796148834019
H           10.94452986130224        4.59151628758134       -3.58013476474526
H            9.43552828198550        8.91577973777015       -2.79993804696035
H            7.46812277899233        8.60592498082276       -1.37847025825140
H            5.47802614702206        8.48568321209386       -0.85444169149579
H            2.31078939053884        6.98345046208035        2.06349109577769
H            1.02514332702494        8.75276897376592        3.19315228216761
H            3.60400056311806       12.57059861115790        2.61222955463790
H            3.97785701279329       14.82444648804144        3.53373343102706
H            2.11720797779175       16.10322214932156        4.50359495430216
H           -0.15673233970316       15.14802885576845        4.57288897456194
H           -2.34026293541562       13.63696134291514        4.38588499400979
H           -4.01390291990964       11.87595209684306        3.95489298281193
H           -3.36264808883813        9.77997767274750        2.84989386446770
H           -1.02935951849776        9.40120044006462        2.15664924780552
H            2.71234576758160       11.64370648722263        0.57801244118173
H            4.00918614923278        9.89435543111687       -0.53895816612954
H            2.16794594927228        4.17864794434242        1.01387885369436
H            1.38161147307662        1.86709774001947        1.33365338475300
