27
 energy: -4.151393331884 gnorm: 0.000786658279 xtb: 6.5.0 (97a52f5)
C            0.39689958109016       -0.29571148956469       -0.21412982244768
C            1.87375456039090       -0.27801177760954       -0.14515112523115
C            2.64539789688388       -0.48796516726896       -1.20874817240437
C            4.11763248544638       -0.47954970010202       -1.18335680287983
C            4.75383865265617        0.05845793731891       -2.30448786817748
C            6.07013780425007        0.23023653558025       -2.54067839207350
C            7.17493915600502       -0.01707937052101       -1.78879037716370
O            8.29785947440152        0.25461698611171       -2.36669318638537
C           14.97790761415098       -0.41300229120727        1.44887058933585
C            6.06907476660970       -1.14301494128484        0.16350394934755
O            6.78338303441185       -1.66487304136316        1.18799032255273
C            5.97735220738138       -2.15048460439911        2.24014818000732
C            4.74246392573726       -1.02789044018371       -0.06258093950556
H           -0.06012050230389       -0.15334091518922        0.76728674879107
H            0.03812137493238       -1.24752380555968       -0.60931836493830
H            0.02814861440244        0.49550388577176       -0.86894277388121
H            2.34267265520288       -0.06002188393652        0.80016030503008
H            2.17066217084108       -0.66604899230255       -2.15836990520603
H            4.09961368061138        0.39860285206500       -3.09015783503445
H            8.43113349921925       -0.24675778701119       -3.21797639561124
H           13.02596595159573       -2.65108358186399       -2.08755132306365
H            8.93944933616441       -2.05132867369223        0.96369120889539
H           15.01829147666848        0.24942707097063        2.22693117181239
H            6.62258033432780       -2.53540422078200        3.03138386222165
H            5.33971893839426       -2.95952948714664        1.87974741097812
H            5.36653219770267       -1.34145706309963        2.64450227988306
H            4.09172910854165       -1.43069603051737        0.69195725361521
