35
 energy: -7.091819079162 gnorm: 0.000614865120 xtb: 6.5.0 (97a52f5)
C            1.44774787286613        0.23034981142671       -0.26305530273108
C            2.89042119947448       -0.21885022596334       -0.43878154902741
C            3.15110230003712       -0.82189498024397       -1.78857270157564
C            2.86674600902601       -2.15846324671644       -2.03342943850975
C            3.08668754843147       -2.71085280054049       -3.27474822890064
C            3.60791167975028       -1.94311525834979       -4.31566535395499
N            3.82585834036094       -2.52902867630539       -5.58534118350864
C            4.73619416272721       -2.17902948031447       -6.60098664426477
C            5.85629167963064       -1.38403154484731       -6.29141825216721
C            6.74911708597368       -1.05452690255913       -7.25383737604670
C            6.53593435128949       -1.52919749701283       -8.55842849555271
C            7.41392674973011       -1.23427883629249       -9.62248300329096
C            7.17544617722619       -1.72079498426654      -10.87402778383924
C            6.05481758390199       -2.52056918567902      -11.11435486042406
C            5.19047875154451       -2.82232969796741      -10.10281684921650
C            5.39801441434924       -2.33963089834102       -8.79184564078759
N            4.51236061587161       -2.66561812532176       -7.81508343373959
C            3.85948825382464       -0.59313329922295       -4.07445209078447
C            3.63545337595540       -0.04474752761575       -2.83223415154201
H            1.27047052938543        0.66763560878916        0.72190056089887
H            0.75836642043845       -0.60744762128774       -0.38046849070980
H            1.17580490610755        0.97734114646182       -1.01073922348451
H            3.16021161859874       -0.94824283618378        0.33538381041498
H            3.57326971080505        0.62642670834218       -0.28619255640045
H            2.46906997094827       -2.76361055568629       -1.23666902383226
H            2.87127418775917       -3.75002646115797       -3.45203037313340
H            3.22191409098799       -3.30638730231764       -5.83367161002561
H            6.01640155521505       -1.07394043668837       -5.27468238305783
H            7.61250106563615       -0.45036747905363       -7.03412357104607
H            8.27637931138115       -0.61894759776341       -9.43218711696184
H            7.85173293818374       -1.49043227908454      -11.68090004560888
H            5.87498638156622       -2.90097750076286      -12.10660002783236
H            4.32832910515625       -3.43853378820880      -10.28794048476547
H            4.19432057979137        0.03005327660575       -4.88455832917201
H            3.82957947606898        1.00047047413001       -2.66180879542011
