74
 energy: -14.439541284206 gnorm: 0.000486132919 xtb: 6.5.0 (97a52f5)
C            3.04228038214356       -0.81759876762806        0.29167741759453
C            3.87331740991198        0.44083037639572        0.09176260338063
C            3.39160356145167        1.60533353780957        0.91104191350917
C            3.75269614606472        1.69946611194061        2.24163727764300
C            3.32516815948708        2.75536427452680        3.01936774174727
C            2.53294564422900        3.74173524364308        2.46970615374326
C            2.15070218710842        3.68804944547125        1.14262103378615
C            1.28268095518751        4.77435694080965        0.57261622623640
C           -0.20365244187511        4.50860315594294        0.75451458315688
C            2.56106980865892        2.59720283365744        0.34797339006302
C            2.10986304156830        2.48636484209932       -1.06687569384257
C            2.84114680822178        3.10698646632212       -2.10542298440126
C            4.01667950566650        3.84914623866772       -1.83024352731712
C            4.71753624886324        4.45539064280607       -2.82611566441734
C            4.28597076727040        4.35718580632333       -4.15682659924736
C            3.16441080727523        3.65172663264835       -4.46473854739050
C            2.40571328650727        3.00023955609842       -3.45997357689163
C            1.24012174748414        2.26679585363138       -3.78253847212405
C            0.78014957838247        2.16090819896503       -5.19436363133255
C            1.39804383541486        1.25402581485062       -6.08070641106831
C            2.50415855789847        0.35164813501487       -5.61122840739127
C            1.99061032280226       -0.91715679316603       -4.94832546062148
C            0.94284341243306        1.16150766445073       -7.38265083933106
C           -0.09240480466071        1.95565744626460       -7.82999534699237
C           -0.69622063347024        2.85075771647636       -6.97173291179057
C           -0.28574071204405        2.96112015724427       -5.65651500067440
C           -0.94395281413407        3.96392213752665       -4.75109014693250
C           -0.20925891451897        5.29466740384812       -4.71024832085567
C            0.50029830763629        1.63339808792497       -2.74291820340312
C           -0.64809734924616        0.89029546126134       -3.02548437390775
C           -1.38486904006532        0.26567198624564       -2.02362206666975
C           -2.55272901784477       -0.49337904750076       -2.30612919803561
C           -3.25039884416720       -1.08972970972977       -1.30455258768006
C           -2.83016778171977       -0.96787145484493        0.03463815842370
C           -1.71954284208805       -0.25144366830539        0.34862219877354
C           -0.95904576263743        0.38877612562831       -0.66697260050774
C            0.18534411528505        1.12615142160011       -0.37979422385826
C            0.93346371695051        1.74806463526576       -1.38160377516810
H            3.42682964206485       -1.66024775323016       -0.28735571372488
H            2.00680434147037       -0.66018333242368       -0.01176712315546
H            3.02681665723802       -1.11676975965825        1.34112383716751
H            3.88407057829136        0.72392776034686       -0.96804882623341
H            4.92384322277619        0.24498092576944        0.34204382291751
H            4.37574465566752        0.93250797611835        2.66987852490899
H            3.61415936281157        2.81179458880308        4.05638948620556
H            2.20274362226250        4.56774747978610        3.07664171107645
H            1.51811541556578        4.90230784548133       -0.49127740499353
H            1.55773574103578        5.72909165420893        1.03904920001312
H           -0.50497997792858        3.58984219438344        0.24970191356878
H           -0.81797615758716        5.31805132249602        0.35362206842227
H           -0.45599161445624        4.39272790655615        1.81014269911099
H            4.35045309453980        3.92856003286093       -0.81041119609731
H            5.60878051822251        5.01591471508911       -2.59501842727204
H            4.84825582845513        4.84383560687953       -4.93717622891136
H            2.83709159483205        3.58045195184491       -5.48725532807818
H            3.15246663254862        0.90469035325865       -4.92061925762666
H            3.14814277059534        0.10162768936828       -6.46404478600173
H            1.38428467440442       -0.68523812720647       -4.07134397851925
H            2.80418244694049       -1.56888459343738       -4.62186516655246
H            1.36048267663294       -1.48980443642777       -5.63130952856162
H            1.40686308817913        0.45597304269480       -8.05100801926499
H           -0.43051468541585        1.87550825594288       -8.85046792402751
H           -1.49969992511157        3.47538608902753       -7.32387532254397
H           -1.02121521314722        3.54271412093328       -3.74130245454307
H           -1.98205005659409        4.11155898537324       -5.07519658983272
H            0.81230609158533        5.16884914084801       -4.34801249676355
H           -0.70292869888443        6.01723230636643       -4.05637316949291
H           -0.14427395325914        5.73813291915140       -5.70550396490633
H           -0.97291487559808        0.79544615268283       -4.04519165302173
H           -2.87566883410205       -0.58761811808140       -3.32877650747367
H           -4.13489871978056       -1.66233567739496       -1.53202671118114
H           -3.39799831037924       -1.44974981646763        0.81396890610406
H           -1.39983702934350       -0.15984318265948        1.37253964437184
H            0.50234804009538        1.21723287056390        0.64285583870580
