64
 energy: -13.326405381997 gnorm: 0.000604434004 xtb: 6.5.0 (97a52f5)
C            2.43670319474601       -1.25874620134270        0.14649318876240
C            3.24533005939717       -0.24734790076268       -0.65160125892429
C            3.36568660545816        1.08407731156760        0.03448761513031
C            4.29775115342647        1.25023647917304        1.04105863816904
C            4.43002979035172        2.45829386133659        1.69299556042555
C            3.62872442547652        3.52374579195382        1.33976943060725
C            2.68404046212983        3.40147883539103        0.33851028906358
C            1.81762811900442        4.57785841349935       -0.01181648969157
C            0.59825263546905        4.70747615379265        0.88800714329597
C            2.52795684086688        2.16299000006094       -0.31838825892877
C            1.48564335799213        1.99346846302095       -1.36919586198620
C            1.77451258373770        2.28785089030863       -2.72084410014962
C            3.05525054833978        2.75351680473173       -3.10903867262718
C            3.33832921900406        3.03961405516415       -4.40826172957151
C            2.35876384311616        2.87750474732419       -5.39866059452319
C            1.11647623914654        2.43124702184346       -5.07071505141924
C            0.77573426041583        2.11869897794219       -3.72888292515859
C           -0.51040711306269        1.65010834528991       -3.38729745739706
C           -1.48662505341381        1.48013317425379       -4.37024032841661
C           -2.36249714510559        1.32170959099002       -5.21229332732282
C           -3.38473523532929        1.12845265733435       -6.15981450120158
C           -4.07601562380529        2.21191170002295       -6.69569844556085
C           -5.08196144309205        2.01889630931494       -7.61920074130564
C           -5.41481447784436        0.74147725570790       -8.02341529631540
C           -4.73894816801204       -0.34374716672125       -7.50242402308917
C           -3.73288298129791       -0.15310687458174       -6.57864083712496
C           -0.81227760698038        1.34801082929359       -2.03138444639899
C           -2.07492048838996        0.87829889998422       -1.65580395534849
C           -2.38669250638284        0.58298001269439       -0.33209682555435
C           -3.66974409839395        0.10941169535437        0.05483417396932
C           -3.94428778796409       -0.16372511644007        1.35685912806633
C           -2.96217541601478        0.01612541518256        2.35042291657988
C           -1.72239449354777        0.46536337695285        2.02421578310081
C           -1.39166749863301        0.76425769219076        0.67511493027574
C           -0.13258492573367        1.22918988857680        0.30890395991994
C            0.18824339181775        1.52448189931576       -1.01741436282865
H            2.37263748442660       -2.22451848617801       -0.35956452196214
H            1.41734039280812       -0.90737775094161        0.31078423333225
H            2.87953119004475       -1.42952842432883        1.12924921613883
H            2.80041440132560       -0.10443530683776       -1.64401239508819
H            4.25301157236093       -0.63571154692586       -0.84703081089497
H            4.92591390571829        0.41940910086090        1.31451464874959
H            5.16130352923826        2.57061277096071        2.47686811811765
H            3.73325236482448        4.46738831762348        1.84795421045326
H            1.50859425452546        4.49949067738512       -1.06140566446247
H            2.42454815280362        5.49096153542919        0.03671091848055
H           -0.04375911126904        3.82903988640028        0.81137880560582
H           -0.00864898849429        5.57946089940554        0.63460497230147
H            0.89070762475162        4.80107863404828        1.93528571789761
H            3.81024580982440        2.87907042700066       -2.35279973781866
H            4.31922109436684        3.39283108934465       -4.68184140415081
H            2.59569881559369        3.10928350329359       -6.42432312022383
H            0.36991326550458        2.30891688753943       -5.83587518701509
H           -3.81428807510482        3.20663054031233       -6.37691661009955
H           -5.60973836461631        2.86656152154382       -8.02526546283213
H           -6.20182552011139        0.59154562979426       -8.74465131622827
H           -4.99793308831249       -1.34146110633417       -7.81777946826005
H           -3.20377231759719       -0.99691609140826       -6.16918190816380
H           -2.82891601183095        0.74281886811017       -2.40907756041285
H           -4.42298255087665       -0.02823327089874       -0.70180655821840
H           -4.92187118801201       -0.52048296692753        1.63761456069298
H           -3.20115376557885       -0.20551514710937        3.37781340552789
H           -0.97398166588564        0.60271470615087        2.78565742480449
H            0.61328212271278        1.36470181296031        1.07036222720479
