58
 energy: -12.434079343074 gnorm: 0.000931293426 xtb: 6.5.0 (97a52f5)
C            1.90100311236754        0.81363044252101       -0.54944117164748
C            2.83130047486227       -0.16343722597141       -1.25195064563905
C            2.89054754913931       -1.50097783848659       -0.57167095908997
C            2.00379094855251       -2.49943052916024       -0.93330874078314
C            2.00877924509409       -3.72420405777335       -0.29516391785116
C            2.90283738549581       -3.96566154898685        0.72776625251563
C            3.78710539546524       -2.98549900001146        1.11189907646708
C            3.80210145621390       -1.73912871578541        0.47706389413388
C            4.75731475391137       -0.68792065555590        0.92442969769892
C            5.96335145813774       -0.46648485706867        0.22116002252152
C            6.30754428586416       -1.25270496653236       -0.90655588554842
C            7.46624016375562       -1.04259407942140       -1.58717464232228
C            8.35277122464386       -0.03475229595670       -1.18145939227235
C            8.06326073812565        0.74267696769363       -0.10375109213256
C            6.86623500669212        0.56047270259240        0.63679958409819
C            6.56408348405858        1.36739557744527        1.75394393315719
C            7.44418693412366        2.37386562213705        2.15450232077367
C            8.20149676453180        3.26314002228190        2.52446501336760
C            9.06789234880978        4.28520639088663        2.95411001395286
C           10.26637542200175        3.98199491151246        3.59471408138905
C           11.11430451202735        4.98525555425897        4.01449295381784
C           10.78045910041117        6.30773967640964        3.80157875690229
C            9.59596406809531        6.62574432220790        3.16778807576365
C            8.74626454184884        5.62412992915686        2.74756864633399
C            5.35562433039136        1.15297535203134        2.47107932396403
C            5.01830164975864        1.93920276124285        3.57740263054581
C            3.83437222902171        1.74713828775322        4.28319364014245
C            3.48404411893518        2.54819865011479        5.40378090981526
C            2.31765362623142        2.33927139249782        6.06792060423902
C            1.43142924238264        1.32354576152431        5.65967321650409
C            1.72770953682665        0.53368451046023        4.59503929864635
C            2.93683118029150        0.71640285720139        3.87136461594919
C            3.26788784599151       -0.07311784602394        2.77453265187554
C            4.45141549438833        0.11692182655236        2.05858040797732
H            1.85471859849906        1.77769301672313       -1.06052847697208
H            2.22763420292733        1.00073566133252        0.47453998254189
H            0.88523815028430        0.41825399223122       -0.49453051401523
H            3.84350065292341        0.25443603053706       -1.31458719201259
H            2.51800843888452       -0.30613006129024       -2.29385971907595
H            1.29710668312307       -2.30907827801491       -1.72312849013950
H            1.31207061872159       -4.49040590394264       -0.59412861633604
H            2.90591354310632       -4.92088229424639        1.22723639757649
H            4.48362555842201       -3.16605332401975        1.91267563585700
H            5.63121049001579       -2.02786808507041       -1.22170367523160
H            7.70767851529482       -1.65180223809295       -2.44289947136501
H            9.26804978732734        0.12106913053687       -1.72894434977608
H            8.74830598731835        1.51388307575329        0.20232114219835
H           10.52361936580776        2.94922802934089        3.75833455041208
H           12.03903308741645        4.73642240998201        4.50933906091266
H           11.44400392519052        7.09127724538524        4.12979084260780
H            9.33474847905201        7.65810176081092        3.00083911747393
H            7.82160529400829        5.86752637634425        2.25221860416085
H            5.68912681081073        2.71781898297719        3.89052542263604
H            4.15891269611699        3.32566529282649        5.71807343635133
H            2.06367694852676        2.95438861871931        6.91574790211642
H            0.51045102408347        1.17537697741693        6.19963914109884
H            1.04822516438745       -0.24126872219896        4.28440056720223
H            2.58883634925219       -0.84693759582325        2.46760552648383
