42
 energy: -7.242742965957 gnorm: 0.000336125519 xtb: 6.5.0 (97a52f5)
C            0.90604872789165       -0.96593546092166        0.43962976676311
C            2.12766102552504       -0.16807740787144        0.01107210702978
C            2.80578844386667        0.50623559661878        1.15499635607231
S            2.65321186198719        2.25963727133234        1.35979599057907
C            3.51562933312156        2.41199547234637        2.84800237918436
N            3.66848205645525        3.57095332409321        3.50737444292917
C            4.32301669131656        3.66160716761037        4.83216327846044
C            3.31548365400974        4.09652400309882        5.90160602957534
C            2.63191339310744        5.41571425698969        5.50049644794967
C            2.00365948372466        5.31114010112708        4.09903695941003
C            3.03740372438828        4.83720252265418        3.07110607567312
S            4.15264082819327        0.90774691698236        3.40568218165627
C            3.53366896439219       -0.13026139451824        2.10089849139127
C            3.81698238830360       -1.57054201333101        2.13831321382722
C            3.52107943680034       -2.29955771358939        3.28272009518822
C            3.76849978269117       -3.65920043692293        3.38304315684503
C            3.43689815350510       -4.41349836771829        4.62191104207706
C            4.34529782645900       -4.31640823690548        2.29169603832306
C            4.66959235462378       -3.63643763517188        1.15174786529300
I            5.52221137369330       -4.63122869317239       -0.44512204169464
C            4.43940198049191       -2.24117418573023        1.01817173851698
O            4.77142441986417       -1.61509144518426       -0.01430779309042
H            0.41403793974894       -1.45006218261833       -0.40625881960619
H            0.17185410581929       -0.32378034323089        0.92857904085184
H            1.17665519774299       -1.74509898158763        1.15365667647902
H            1.84440270605381        0.59288661407063       -0.72673902952069
H            2.84827238437158       -0.81478688301734       -0.50253962607039
H            5.14407279338836        4.38126441365166        4.75912899309747
H            4.77778734216738        2.69594497769741        5.07543990938390
H            3.80197045953075        4.18726034897321        6.88231985149416
H            2.55566588149978        3.31438632302469        6.01692703248087
H            3.37197788534346        6.22507923690477        5.50768109599119
H            1.87590817098838        5.70260199508181        6.24445278033046
H            1.56445414393346        6.27080835564815        3.79428254939551
H            1.17126661530824        4.59798729176547        4.12594496744494
H            3.82585831599724        5.58502116768619        2.94256187862739
H            2.58556265694750        4.69056731711187        2.08480194998625
H            3.07856439044911       -1.78502714028632        4.11641097990297
H            2.94272981684988       -3.77613866802185        5.35585326646627
H            4.33912624324602       -4.81632045123492        5.08335358992223
H            2.76932208465114       -5.24721581539765        4.40172756760661
H            4.54369496156646       -5.37477121805106        2.35209152376821
