5
 energy: -0.561886475743 gnorm: 0.000110180398 xtb: 6.5.0 (97a52f5)
C            1.02725501359338       -0.05937772021835       -0.07891654367434
Cl           2.77122009418512       -0.05937306312838       -0.07890325903297
H            0.66337082286901        0.51496363785068       -0.92643259618569
H            0.66337744220780        0.38743213010486        0.84221662502002
H            0.66335662714468       -1.08051498460881       -0.15254422612703
