23
 energy: -4.188813357224 gnorm: 0.000886787330 xtb: 6.5.0 (97a52f5)
C            1.07343159276634       -0.04514237861018       -0.03534335800002
C            2.54604621913955       -0.17747270817760       -0.08741613955853
C            3.31807659532933        0.68253870081493       -0.74855159307043
C            4.77365731319426        0.60755111493864       -0.85761982646176
C            5.49111878400814        1.71310182949356       -1.31684711077267
C            6.85776595374535        1.67050237650909       -1.43600029827688
C            7.57976372358586        0.51889345647191       -1.10640108413670
O            8.97004198218737        0.55722176384758       -1.25844939514315
C            9.63291029515856       -0.64486199112873       -0.93394302910427
C            6.85887881385678       -0.58957978547839       -0.64989467576392
C            5.49093282529641       -0.54461012406027       -0.53042446155934
H            0.62393514930714       -0.74284361180550        0.67447339294440
H            0.63133221080346       -0.23704624540752       -1.01455878120697
H            0.78323606902562        0.96253030958621        0.26721636011733
H            3.00308892796727       -1.00740834988231        0.42446259765455
H            2.84074793794235        1.51248921643992       -1.24122114066928
H            4.95646217156366        2.61071575227712       -1.57654131523053
H            7.40241631810251        2.52819395869986       -1.78898733356843
H           10.70230580688364       -0.51214424488242       -1.10300003357139
H            9.27499247980411       -1.45402640133191       -1.57202859267277
H            9.47122720357978       -0.88937503785846        0.11678835818733
H            7.38062794094856       -1.49241705926734       -0.38971433269649
H            4.96189368580395       -1.41785054118747       -0.19224820744020
