90
 energy: -15.158853553701 gnorm: 0.000436370687 xtb: 6.5.0 (97a52f5)
C            0.48880054181285        0.46116404746655       -1.27209783990092
C            1.82765640585473        0.34388912270505       -0.57604318963196
N            2.65862540370292        1.54569671040353       -0.75117240628637
C            3.81022589904360        1.66009704569279       -1.50569071211640
C            4.39228894322716        0.62376327647786       -2.34807956452056
C            5.74036906548493        0.25895502269764       -2.21520579756627
C            6.28803321497985       -0.71467372802458       -3.00575625852108
C            5.52443705540224       -1.37472315785493       -3.98093134944427
C            6.11128434202355       -2.41631943449481       -4.83027726169950
C            5.61955858826290       -2.66550771472492       -6.11891927386295
C            6.16375134790431       -3.64168954071862       -6.91116890479690
C            7.22619734577476       -4.43634372472839       -6.45943631189970
C            7.79532014922906       -5.49464794818908       -7.30018563752331
C            8.38220189657232       -6.63576965098374       -6.73164180518995
C            8.89975605632100       -7.63178861724074       -7.51413590934161
C            8.86987075120549       -7.53872216848459       -8.91334706535878
C            9.41888636205051       -8.60085471799837       -9.74623698862941
N            9.08917528213789       -9.94029721387151       -9.67011108885050
C            7.96652228769551      -10.52183317058866       -8.91787337083452
C            6.68114249716565      -10.47578340885718       -9.71339757629406
C            9.82401210016964      -10.63489904978864      -10.63750644443311
C            9.86564745202192      -11.98336972631392      -10.99218706221833
C           10.71901111365248      -12.39241124663882      -11.99711944833808
C           10.79594805939184      -13.82985755581649      -12.37343685865441
C           11.54259841687517      -11.44871802829092      -12.63369443753722
C           11.51026114569825      -10.11701181377978      -12.29977627185471
C           10.63684595522411       -9.70166469432311      -11.29528467972838
N           10.35980396356480       -8.44472654313937      -10.74570588264358
C           11.15472060044550       -7.23665693581760      -11.01486594535391
C           12.39078289277423       -7.17896089696478      -10.14559721656745
C            8.29210309056015       -6.39575417483118       -9.48546408475195
C            7.76576496877409       -5.40593424338478       -8.70065925436679
C            7.71797871786019       -4.18727338733976       -5.17076007820247
C            7.18075054366514       -3.20387309014679       -4.38253560428059
C            4.17663610154721       -1.00613996242436       -4.11217024119629
C            3.62464482874113       -0.03990552555533       -3.31598564155053
N            4.31879954343378        2.93157744701690       -1.32162684317434
C            5.38833231773180        3.56711858148101       -2.10712361834795
C            4.85357434987970        4.17531870295932       -3.38429137022868
C            3.46731279608166        3.63049692983707       -0.45827905470012
C            3.49237974458185        4.93544437001314        0.03262844337951
C            2.49480273066379        5.33561826281485        0.88726102516545
C            1.45666267414526        4.47026472389122        1.27071738622036
C            0.40910145511329        4.93362277452666        2.22020089640391
C            1.43524140933175        3.17689770860359        0.78864880430022
C            2.43699299863064        2.75637093596555       -0.08642229480444
H           -0.11764740921422       -0.43764181386088       -1.14686953228414
H            0.61525775671917        0.63126011274464       -2.34110939866921
H           -0.08296989102049        1.30416141475126       -0.88392318080900
H            2.39072011348693       -0.51844531327462       -0.94594411758196
H            1.69933826880565        0.18065106886823        0.49868218789246
H            6.33551742620744        0.73969193769408       -1.45880425362634
H            7.32877324235554       -0.96265639658201       -2.89702460064683
H            4.81523952123790       -2.06142125115726       -6.49951145223507
H            5.75136353631288       -3.82281897710242       -7.88779407416399
H            8.39890770194403       -6.73968662335874       -5.66144370672049
H            9.35917080991026       -8.49273147345838       -7.06110905896854
H            7.86139831275043       -9.97946746101339       -7.97444551530330
H            8.23071648641245      -11.54891425544607       -8.64856580955047
H            6.42079255460000       -9.44794368273339       -9.96853620572705
H            5.84196283982230      -10.90750254085130       -9.16514958990482
H            6.78507853461811      -11.02191801534303      -10.65152763444398
H            9.24268701300127      -12.69461074257126      -10.48341015894293
H            9.81889455614023      -14.30719190487656      -12.29650527035728
H           11.48537981614473      -14.36345541523886      -11.71903664760302
H           11.14255106690040      -13.95073349142098      -13.39982178883705
H           12.21407000718513      -11.78671834173033      -13.40369338294519
H           12.13951691691498       -9.40147806494511      -12.79711089458729
H           10.52199309172052       -6.35998687112535      -10.85229885511347
H           11.41524082894863       -7.22891795775298      -12.07757828774804
H           12.12078688927508       -7.17518336567178       -9.08899195809575
H           12.99033376027660       -6.28827197313132      -10.34143443771081
H           13.02317749137568       -8.05175650792003      -10.31117279563394
H            8.24431310265680       -6.31996919566268      -10.55757423229558
H            7.34317996051616       -4.53155667855473       -9.16254990367010
H            8.54857920649236       -4.76479685484701       -4.80564218289132
H            7.56663624570238       -3.04975530418567       -3.39055193572117
H            3.56161966812514       -1.51261240857086       -4.83444412544510
H            2.59428120142210        0.23983752703332       -3.44178444163778
H            6.15593037355736        2.81924663473493       -2.32260463557890
H            5.87050325716030        4.32239449800462       -1.47920652911233
H            4.38982483588010        3.41311587947415       -4.01142526418784
H            5.63760005228072        4.65907854698079       -3.96948038212689
H            4.08814560975539        4.92137874450739       -3.16830114774109
H            4.28307449386475        5.60455801876382       -0.25434342747027
H            2.50286632627978        6.33716565963928        1.28086552153344
H            0.25247527657168        6.00930202917894        2.13860142864402
H            0.69455617359989        4.71065418568330        3.24832844415803
H           -0.54472859346983        4.44504335494237        2.02055697596809
H            0.65886816047976        2.49765867817771        1.08620034752016
