87
 energy: -14.696795159623 gnorm: 0.000731178582 xtb: 6.5.0 (97a52f5)
C            0.43063520529615        0.10982220201136        0.72429511087277
C            1.83034340166273       -0.08406969000677        0.18183371067766
N            2.57267512504355       -1.12757226493601        0.90684610538512
C            3.64411585291790       -0.94993271954373        1.76075585871225
C            4.21216849999346        0.32585795183769        2.17416584651976
C            3.40203604087076        1.34960341175088        2.68584867999373
C            3.94138640415714        2.54064981957427        3.08939892733837
C            5.32066665251010        2.78349943257658        2.99773256304186
C            5.89848351017464        4.05739267113941        3.43733857163747
C            7.08378172944143        4.54977642855112        2.87900994208265
C            7.62232355000835        5.73417718112658        3.30211656026111
C            7.01990760107540        6.49496722436530        4.31408128997169
C            7.66228798561968        7.74845975478202        4.75641448692793
C            8.11680241404217        8.68793559506359        3.81829502391783
C            8.72182648167664        9.84884874624561        4.21562749684567
C            8.92003503295733       10.12908327037890        5.57607842768382
C            9.56343307620798       11.36530024005499        6.00076921605661
N            9.18984337123485       12.64208350010996        5.62881971578939
C            7.94978256838645       13.01939133765610        4.93291857983633
C            6.78572849054651       13.13083773591759        5.89169985733847
C           10.04437303481451       13.55600589383844        6.25586124210547
C           10.10048143359093       14.95033674917242        6.24250828863842
C           11.09072408729776       15.57453265138615        6.96064952466402
C           12.02484082156508       14.83723023074703        7.69170331524868
C           11.97910211637046       13.46509047324959        7.71974022832771
C           10.97570575854802       12.81618198295951        6.99907399115421
N           10.65219790426336       11.46349661947466        6.84532744581432
C           11.51644616798603       10.35782116554064        7.28674334036274
C           12.59707025152076       10.05722538576683        6.27247860236445
C            8.48339562213333        9.18278356884879        6.51542991062154
C            7.87156396341785        8.02616379929471        6.11602051737724
C            5.80549525984667        6.02648736896575        4.86957836858022
C            5.06624137327515        6.80231551267272        5.90340268628861
C            5.28312139757522        4.82886310299925        4.43220310771869
C            6.12728809009081        1.76137088102759        2.47393064320278
C            5.59067568594874        0.56676898290430        2.07678495716187
N            4.08554329836430       -2.19684244656241        2.16037937214524
C            5.02804479546375       -2.48087848993585        3.25432609351970
C            4.32651021499809       -2.53687211163840        4.59261749200367
C            3.27035770786829       -3.16784930096046        1.56785830161227
C            3.25374234674230       -4.56018688876754        1.65939443720165
C            2.31264920642920       -5.25417484819078        0.93940559547201
C            1.38970206509313       -4.58857301809577        0.12974220396610
C            1.38994904942916       -3.21872824920882        0.03363640047422
C            2.33533202684588       -2.49855269072291        0.76505386050725
H           -0.10922726916552        0.89594290443642        0.19351600692060
H            0.45190242495122        0.37575910148142        1.78091741159921
H           -0.15318681342395       -0.80706549964455        0.64228272266475
H            2.40617646529659        0.84495686254819        0.23384197740262
H            1.80709387611893       -0.36431307251583       -0.87597710523868
H            2.34559183283874        1.17576774426160        2.78206652909984
H            3.29493190966491        3.31528237516783        3.46117333837332
H            7.56394424237088        3.99879489765984        2.09002251833682
H            8.54236964911459        6.08760596357915        2.87014234674047
H            7.96699205654013        8.49003406264272        2.77140986550277
H            9.07991019831855       10.55129380255951        3.48371768476705
H            7.74679974283958       12.27702514036337        4.15649040997055
H            8.12488530619589       13.96368458093334        4.40894387714970
H            6.61096926852527       12.18189050051186        6.39994822487428
H            5.86152181178892       13.41480271969794        5.38535937919539
H            6.98814137575320       13.87479238892782        6.66298387974482
H            9.38211610557559       15.51350402246535        5.67498740812180
H           11.15008039891469       16.65023142830018        6.95912393173655
H           12.79203975162220       15.35433001101835        8.24367137083654
H           12.69298950592786       12.89330297818572        8.28430779227007
H           10.89290580430623        9.47788706788499        7.46529317622485
H           11.94588398335805       10.62617874567587        8.25660462398701
H           12.15973193752231        9.77977229881090        5.31273951567334
H           13.24679546196061        9.24115264834765        6.59338951686102
H           13.22155051604859       10.93411906166835        6.09866028201366
H            8.61590701277948        9.39133983704258        7.56249645753573
H            7.56756253921385        7.29954579142268        6.84841575144562
H            5.28264213961379        7.86797753255956        5.82938821156686
H            5.32930522920944        6.46510345470462        6.90595960804789
H            3.98933777913750        6.68202113383790        5.78303942091542
H            4.38064817894033        4.46686236726856        4.88899410704935
H            7.19015592662288        1.91130716345796        2.40982835054505
H            6.22270413153821       -0.19724040729857        1.65918561308248
H            5.80490738305856       -1.71221713914888        3.25498464273265
H            5.53627295549951       -3.42367019776206        3.03136743684980
H            3.83162739025588       -1.58968477394925        4.80993716207415
H            5.01750912976685       -2.74911550013623        5.41032862928287
H            3.55581135747550       -3.30837041287208        4.59536803769659
H            3.96768648128466       -5.06838068566230        2.28175369824059
H            2.28624416918548       -6.32957034777708        0.99787133063690
H            0.66619378783007       -5.15978297170431       -0.42792119436342
H            0.68477819241324       -2.70319573249675       -0.59261984562031
