84
 energy: -14.245657112234 gnorm: 0.000672564921 xtb: 6.5.0 (97a52f5)
C            0.59017090741910        0.04700717954681        1.06391019187871
C            1.87807400271733       -0.07568332525706        0.27828795059488
N            2.61169776981952       -1.31117578483553        0.59507928968433
C            3.80275147730101       -1.41776471805333        1.28634948429912
C            4.53948401211528       -0.32260275337440        1.90355522270796
C            3.91894320619014        0.55769234100987        2.80194333244617
C            4.61762336111329        1.58212479877155        3.38093930745216
C            5.97330201972346        1.79525997682002        3.08722035955528
C            6.72176625046986        2.89599556667916        3.70303656528970
C            7.80662421507225        3.49274931487617        3.04644060885349
C            8.50935523780849        4.51810609257451        3.62180363598091
C            8.17760856736662        5.00254012494520        4.89427390259267
C            8.94228471019839        6.08876654136449        5.51611556597243
C            9.06858849319814        6.18218317105333        6.91073059151503
C            9.79940082107398        7.18296780502127        7.49102335763738
C           10.43817619415777        8.15620868978433        6.70866997747331
C           11.23382715936693        9.21133481556982        7.32312095847318
N           12.28187039915116        9.02440822704092        8.20311563547526
C           12.92664201598353        7.74259858128293        8.52866655507487
C           13.91591710609750        7.32950090603506        7.46179827348618
C           12.81357147608273       10.27538941663749        8.53599462120456
C           13.87553180867267       10.65690316061382        9.35707119839978
C           14.14165866209006       11.99573540582343        9.50704551996249
C           13.37082984957134       12.96106387950963        8.85544540187409
C           12.32700782705395       12.60149995077813        8.03884758227445
C           12.04828555657666       11.24454122990993        7.87094331330094
N           11.08852121800568       10.56824555333958        7.10974629321820
C            9.96816947749872       11.23060271097003        6.42414625254545
C            8.82310442717060       11.51039980069074        7.37161542536353
C           10.30378899465558        8.07329389923455        5.31488467940923
C            9.58112756164939        7.06550015409381        4.73666015032872
C            7.09393307927271        4.40475288277851        5.55197468040959
C            6.38404655630607        3.38672209169939        4.97168141785191
C            6.58925030747022        0.91715492112346        2.18227881743975
C            5.89520454326088       -0.11393133529950        1.61027168747077
N            4.18399683107132       -2.74555451062719        1.27907597568295
C            5.25812188621477       -3.34976041483906        2.08321867975879
C            4.78740280152158       -3.67899335594858        3.48241846397004
C            3.21438467076677       -3.48502271571326        0.59231643489279
C            3.09585683385548       -4.84698888563412        0.31212742313318
C            2.01448361611835       -5.27582831147993       -0.41755425586093
C            1.04996888350199       -4.37460685067810       -0.87372033608330
C            1.14912359696000       -3.03250500978383       -0.60067492644454
C            2.23854414053554       -2.58208494752966        0.14591320016852
H            0.05589441486427        0.97018282195859        0.83250306241839
H            0.78236633835215        0.03290579523280        2.13659148108115
H           -0.07979177362243       -0.78648109076888        0.85233595810290
H            2.54028870667363        0.77405763001973        0.47025894111051
H            1.68464936378935       -0.06902024383694       -0.79902906937035
H            2.88415210363135        0.40229626222929        3.04895614165443
H            4.11443491857081        2.25358984487096        4.05352593451815
H            8.07512973229216        3.15347448324881        2.06178800770140
H            9.35002557994157        4.94211073793514        3.10186904864478
H            8.60626446185200        5.43506473784156        7.53078339049820
H            9.87520031566970        7.24651178657568        8.56237582116529
H           12.14870348938454        6.98496577010036        8.65570502088334
H           13.41300634964029        7.84143076360089        9.50371052458685
H           13.41963188426486        7.21560143569679        6.49738037609896
H           14.40669689220761        6.38403401894895        7.69935375429400
H           14.69017652560289        8.08695592671574        7.33614935778286
H           14.46431320357010        9.91143048838176        9.85997083161992
H           14.95626701816950       12.30763710310209       10.13939781488024
H           13.60098951316876       14.00427139741651        8.99494721822209
H           11.73413345367060       13.34091523488732        7.53175768324316
H            9.64304818177357       10.59575403946794        5.59554528913696
H           10.34383605419116       12.15277038946434        5.97050366460463
H            8.44303317411775       10.58391178456224        7.80320262567090
H            7.99225304741448       12.01483765596357        6.87520354371304
H            9.14964577871855       12.13953010648736        8.20023260685221
H           10.80367116509624        8.80200283467920        4.70114380845252
H            9.47946387449741        7.03223641880129        3.66658735468637
H            6.80195731514137        4.77022004173871        6.52047564779467
H            5.56993672698027        2.93428854128879        5.50954085299665
H            7.63273856034871        1.04356208060819        1.95523399030683
H            6.37863299177236       -0.76372039261013        0.90203783208750
H            6.10590541433676       -2.66006367998353        2.10893852205148
H            5.61288279764024       -4.24455875794175        1.56289810405241
H            4.45600155384780       -2.77869402337155        4.00104190548614
H            5.57284180607545       -4.14136071080312        4.08277436674492
H            3.93916768850215       -4.36362087312734        3.45568902525293
H            3.84301005961358       -5.53682342693938        0.66039595643714
H            1.90909745712698       -6.32352587057874       -0.64552848702520
H            0.21488081257048       -4.73931940888502       -1.44848234014285
H            0.41203051633990       -2.33494792350378       -0.95479403501611
