116
 energy: -25.500813408824 gnorm: 0.000512977418 xtb: 6.5.0 (97a52f5)
C            1.71287329384249       -0.58894782571066        0.48641521454830
C            2.91606185421873        0.24383884484048        0.10008241640035
N            3.25019475793762        1.24986047591565        1.12396330304851
C            3.07709070325544        2.61628575559415        0.99845012104223
C            2.63073697569893        3.32004326913744       -0.21242229626416
C            3.37934764533941        4.37867226128953       -0.73283228495274
C            2.97693179634967        5.03734737877833       -1.86770089750814
C            1.80215809485386        4.67318283819120       -2.53053141042422
C            1.38690489159625        5.37631340836305       -3.76735335574568
C            2.28834783175849        5.47738213063547       -4.83124578188810
C            1.95472059031863        6.10036171337495       -6.00829690719235
C            0.69034416373467        6.66894703993745       -6.18414527103740
C            0.31434669364209        7.32125184175994       -7.39845371479010
C           -0.90863253944542        7.87879815582833       -7.54624222053396
C           -1.87169835192291        7.83910698635202       -6.49007862854162
C           -3.13791402473846        8.41438080272142       -6.61439829397559
C           -4.04214407013626        8.36321015377468       -5.57350072728488
C           -3.71431703718983        7.74344664466752       -4.38543099944959
C           -2.46091143326778        7.15296439918658       -4.21006022808037
C           -2.08107956550519        6.51309249355044       -2.99045592049606
C           -0.86081761076850        5.94824760297106       -2.84708911314920
C            0.10116966223578        5.95726153904299       -3.90392656387854
C           -0.24121664273159        6.60134883223842       -5.11983020520044
C           -1.52821572899250        7.19739073828682       -5.27430588032322
C            1.05344730647847        3.61408249651458       -2.00942727197815
C            1.45628601299445        2.95528602880247       -0.87386825522644
C            3.49718005917080        3.21439916244292        2.19743448732375
C            3.49678771395675        4.65815709801874        2.49183226261734
C            2.39648493134552        5.46798482810327        2.11990122348940
C            2.37253525874671        6.79769987769348        2.39902313509131
C            3.45157680781217        7.41339011864012        3.07635626279103
C            3.45498869113449        8.78910629246659        3.39508342665423
C            4.50900343548796        9.34609965322058        4.05643621521599
C            5.60791284524462        8.56162490270033        4.43057865001752
C            5.63860484864218        7.23172204945496        4.13765420615868
C            4.56236164578937        6.62068808699801        3.45286851566372
C            4.55829324559464        5.24647131924992        3.14232621801393
C            3.91362836765078        2.17682565087982        3.06633990498790
C            4.42776926638014        2.31930920763719        4.43963328389156
C            3.84698947355278        3.24052266371961        5.34436552002240
C            4.31972374849740        3.37915078471470        6.61117614004849
C            5.40714380065331        2.59671382500235        7.06739351731484
C            5.92716230369127        2.71509617853345        8.37501815855811
C            6.97221958703115        1.93877834850843        8.78019393676209
C            7.54733666103323        1.00780301701859        7.90514733312667
C            7.07242543527929        0.86885337747758        6.63618939473926
C            5.99260292048009        1.66109248593226        6.18139728647936
C            5.48261254728989        1.54769296405804        4.87365112670284
C            3.75917681049991        0.96480265339558        2.37630059676590
C            4.02338499739624       -0.37641117089431        2.91990452255296
C            3.43315357440096       -0.78128760952602        4.11977377967286
C            3.70198939902963       -2.01523938390149        4.65654838125732
C            4.57994990872836       -2.89738174265570        4.02187822864560
C            4.86874478212378       -4.22539957599008        4.61222874659274
C            3.80786401772688       -5.07640046844862        4.93584787405071
C            4.01588244657464       -6.32343603580845        5.47109582761579
C            5.30978934994491       -6.78880077387657        5.72075846119738
C            5.55664309005279       -8.08261723508849        6.27434758365198
C            6.81489575047454       -8.51161945468501        6.52167955034909
C            7.94686833006815       -7.68411747938045        6.24149051230537
C            9.25534510533615       -8.10100399458166        6.49405113706992
C           10.32547852167383       -7.27512814704551        6.21745879614612
C           10.12621962840365       -6.01725711059519        5.68723453944119
C            8.83735740254830       -5.55258577577335        5.41633581441208
C            8.59063556291686       -4.25205032672143        4.87885152056931
C            7.33230100805832       -3.82797727114167        4.62338113381340
C            6.19424051455347       -4.65671142157021        4.86987903860001
C            6.40710503813280       -5.94488288910387        5.42249646200120
C            7.73364093759603       -6.39542533726292        5.69231641450914
C            5.16164393771213       -2.49557327145542        2.81600238354024
C            4.89302074461000       -1.26093422246629        2.27861747807581
H            1.44674811377150       -1.31172753352928       -0.28776543564810
H            0.84159309579268        0.04172930449135        0.66770626283254
H            1.90021701315364       -1.14378604367483        1.40685623892403
H            2.75046958193384        0.75888253875991       -0.85124552307333
H            3.79474251430465       -0.38751516065831       -0.06156298442322
H            4.28405832928065        4.67167287555323       -0.22856363922627
H            3.56232281978867        5.85278302026413       -2.25639798251743
H            3.26452277436952        5.03744740244772       -4.71906899066967
H            2.66825735554168        6.15498898171041       -6.81247271454581
H            1.02935926610282        7.36252959491362       -8.20195217236160
H           -1.17499148528979        8.36698337480744       -8.46777316409353
H           -3.40205962831976        8.90265714237806       -7.53665392249018
H           -5.01452030369400        8.81354969119500       -5.68942457889113
H           -4.42557493004563        7.71086413622802       -3.57813277124724
H           -2.78762139249504        6.49260252413791       -2.17875787292569
H           -0.59346496995828        5.49067473745121       -1.91153440848717
H            0.15697275496284        3.30901245657675       -2.52149862994146
H            0.85802831727710        2.15630992364974       -0.47247874298276
H            1.56887492415922        5.00724787680981        1.60903404237939
H            1.52793974781707        7.39902960371075        2.10988002140912
H            2.61024855817773        9.39238616479514        3.11004713801766
H            4.49938372816887       10.39691188166858        4.29610000431478
H            6.43257219457392        9.01644341134275        4.95487180222794
H            6.48161760565604        6.62831396362763        4.42745630079076
H            5.40064577800909        4.64294480070364        3.42736659647731
H            3.01624671510884        3.83672607446982        5.00892512822576
H            3.87092424055241        4.08914762006299        7.28421315067510
H            5.48584785529992        3.42917124841951        9.04887249338385
H            7.36099988515367        2.03866807672143        9.78048532903745
H            8.37071402329913        0.39908508503019        8.24177602501360
H            7.51302961185685        0.15277445779113        5.96398156207774
H            5.92821315410931        0.83876820217948        4.20023678301787
H            2.76695148959046       -0.10319967156543        4.62487195700938
H            3.24914733673735       -2.31104902998602        5.58718847985147
H            2.80373636243526       -4.73947602636400        4.74286335468867
H            3.17849004940861       -6.95871331537032        5.70341892632594
H            4.71494064220853       -8.71632509618596        6.49457468565840
H            6.98257152812771       -9.48924181396278        6.93952800458404
H            9.42075908064648       -9.07961069551910        6.91080109218993
H           11.32793419337041       -7.61580256263832        6.41945237204652
H           10.96728731840299       -5.37903478991340        5.47757286641086
H            9.43073752409757       -3.60825746526987        4.68320600833964
H            7.17353849240371       -2.83695653403219        4.23775365067778
H            5.82423379919350       -3.17400953559649        2.30645913393604
H            5.37733521242808       -0.95058075158330        1.36930030748319
