76
 energy: -15.593817252197 gnorm: 0.000791860737 xtb: 6.5.0 (97a52f5)
C            2.27509377698975       -0.17727266698097        1.16448724136639
C            2.50986154569567        0.61659673609760       -0.10201598888709
N            3.14893661479784        1.91758018013409        0.16364521651805
C            2.53721248769513        3.14988459291905        0.01833662502330
C            1.17926658195813        3.37860537378771       -0.50000166012440
C            0.96483983610703        4.21221318035254       -1.59897724875714
C           -0.30271489429920        4.44492744293062       -2.06753766190449
C           -1.41983165870971        3.86023913665876       -1.46047264926273
O           -2.67848892475163        4.15517087093661       -1.99542841339946
C           -3.76338980775938        3.57938876646117       -1.30284475867888
C           -1.20046831633612        3.02417116986265       -0.35957224594749
C            0.06862823313453        2.79113526340749        0.10787420434898
C            3.45853721714206        4.13454433367575        0.39703479061871
C            3.23686593892707        5.58988427542629        0.36129082513918
C            1.99259817147161        6.14213656925287        0.74855018941480
C            1.77351930524219        7.48313359868629        0.71467596603913
C            2.79025415194001        8.37095457069394        0.29140390165455
C            2.59872030012306        9.76889359841481        0.24338557724409
C            3.60329914850835       10.59385232581749       -0.16854936116005
C            4.84361412875702       10.06710177677141       -0.55007170224262
C            5.06267414298082        8.72284506998134       -0.51716343871087
C            4.04270195477377        7.83782696310761       -0.09746746740788
C            4.23462358478829        6.44322157508797       -0.05539005641547
C            4.64494122810062        3.47036003366593        0.80476519668562
C            5.86951619811542        4.09800612823989        1.33101485982937
C            5.79267577691404        5.15169843844512        2.27303307779830
C            6.91410720207814        5.73204269022203        2.77604851792973
C            8.19731166164750        5.29330891998211        2.37331935541360
C            9.38339675113509        5.86759634853368        2.87971800210202
C           10.60335804650766        5.41427321620420        2.47282273299260
C           10.69970685409354        4.36982727702414        1.54478953352698
C            9.57572249897181        3.79280056641966        1.03526183952112
C            8.29425168933041        4.23795186790865        1.43446460835490
C            7.11256861147565        3.66047175511029        0.93073215737945
C            4.43649102754279        2.09569100775153        0.63607699613640
C            5.38869435471360        1.02491234220077        0.96866913611545
C            5.97100190930334        0.95748866355168        2.23598187318411
C            6.86351757779926       -0.03558125945665        2.54783613807355
C            7.22002034428867       -1.01161663739832        1.61034502507399
O            8.13399145415482       -1.99249203293237        2.01009969852624
C            8.44201196531346       -2.95007096080144        1.02132392194942
C            6.63924397753630       -0.93680243370701        0.33887156858422
C            5.74772126878760        0.05895873696808        0.02715744450597
H            1.77174493160918       -1.12647324142588        0.96864514629139
H            1.66343065304250        0.38547314428822        1.87083228721494
H            3.21740219216745       -0.40023301836195        1.66685342798364
H            1.56859973085031        0.79685995809560       -0.63091579347404
H            3.13767356251048        0.06188651474500       -0.80547765815222
H            1.81302178659016        4.67495493246097       -2.07298758236464
H           -0.46239574026221        5.08948438436960       -2.91340551025514
H           -4.69184641635686        3.89479865621007       -1.78077541235611
H           -3.76906720852194        3.92019410147016       -0.26693218415045
H           -3.69878681487640        2.49164508307981       -1.34467091998321
H           -2.03572688118763        2.55882963399068        0.13080856338428
H            0.22079687035756        2.16265408366649        0.96773199681788
H            1.21276360841081        5.47562661642272        1.07304215661412
H            0.82012145505306        7.88594339855912        1.00969596418920
H            1.64600820561750       10.17499878809071        0.53629790317315
H            3.44506193926141       11.65943027715374       -0.20147437989048
H            5.62812097797341       10.73243002287552       -0.87171937411509
H            6.01625009560038        8.31805187215098       -0.80922417920331
H            5.18305029132361        6.03708607502527       -0.35564366902908
H            4.82068490361195        5.48844018141073        2.58930333529042
H            6.83809276229257        6.53344548698059        3.49034355053487
H            9.31078385732754        6.66913640569088        3.59443732021520
H           11.50186244249426        5.85994274198105        2.86722275930853
H           11.67133146597975        4.02221114777162        1.23385107467405
H            9.64968123334620        2.98870869010375        0.32354644055776
H            7.18394997018870        2.85686783437746        0.22095528556618
H            5.70835734371247        1.70143889750715        2.96819558341200
H            7.30902205932986       -0.08216608369945        3.52570137564981
H            9.15475049147955       -3.66466975845727        1.43515762802629
H            8.89544640620342       -2.46321041241558        0.15679044891957
H            7.53893624285579       -3.48596092994284        0.72560151029308
H            6.89611915758965       -1.66586859785635       -0.40772630204915
H            5.33202450743153        0.11909374227382       -0.96340436124384
