34
 energy: -6.785259718630 gnorm: 0.000775404531 xtb: 6.5.0 (97a52f5)
C            1.08621175519983       -0.00933994165277       -0.06094435039210
C            2.59686214971568        0.01241268764541       -0.03985925454573
N            3.11437395236233        0.03797307974578        1.31902000955403
C            3.29219444976125        1.27457589723620        1.94988343579496
O            3.02536797505068        2.29013218223084        1.32073692038287
N            3.75000037713176        1.34641281893280        3.23654127889801
C            4.00313097355426        0.22194001343497        3.88138084632969
N            4.46756572102903        0.30365322231327        5.18692709210629
C            4.66053175737246        1.61911354010282        5.78658546619765
C            4.74034158717302       -0.86126992739552        5.89571114445598
C            5.21224448401366       -0.84473099302769        7.21270787958207
C            5.47891561503529       -2.00870175040075        7.89873527931292
C            5.98051034962179       -1.97949842306214        9.30017701506603
C            5.26929636116271       -3.22845041975543        7.25457064512128
C            4.80696637733519       -3.27196974767106        5.96653989065646
C            4.53102435835938       -2.09866017563224        5.25491435457443
N            4.07249495992434       -2.19720958886009        3.96967792168546
C            3.82733406931638       -1.08012019458506        3.32501076176049
C            3.34632173524155       -1.17151096132425        1.95975581874892
O            3.15352812834439       -2.24080395338661        1.40396400988384
H            0.68765495254879       -0.02812491255749       -1.07702569174733
H            0.68328668176340        0.87059888885762        0.44259986138390
H            0.70743564548253       -0.88633880310768        0.46587405124108
H            2.98897828249656        0.89160383943231       -0.56451371391688
H            3.01366345064677       -0.86945867447648       -0.54061445467748
H            4.39450443030458        2.39482540997218        5.07157062614715
H            5.70272427988719        1.75341735990779        6.06891622319739
H            4.02703257640201        1.72758036387349        6.66459544414215
H            5.37187155164804        0.09681125343608        7.70410923104224
H            6.09172904675986       -0.95715868028871        9.66239607747064
H            6.95349433720626       -2.46628994531803        9.37331089675331
H            5.29131252759634       -2.49658734520786        9.96853194694822
H            5.47633117293658       -4.14191302434060        7.78546433294571
H            4.64712392761610       -4.21616309507111        5.47572900389636
