66
 energy: -12.166101206642 gnorm: 0.000461182910 xtb: 6.5.0 (97a52f5)
C            0.60383146908773       -0.03159681489088       -0.90279780540251
C            2.01257889767252        0.21919002296639       -0.41078111263601
N            2.91998797557092       -0.90836555602503       -0.71746498124804
C            2.61169473869340       -2.24086506304812       -0.37359173409759
C            1.84517020417771       -2.79156042555804        0.68414081237309
C            1.37228777604645       -1.99063042411586        1.81496897747519
C            2.11170069858286       -1.08934178256197        2.52668856319674
C            1.39076028607817       -0.46248155259279        3.57926570290074
C            0.11001910619598       -0.88482186979525        3.67770822306613
S           -0.24481884293995       -2.07691185420367        2.47613044002136
C            1.59103727028042       -4.15651189346555        0.64803387591121
C            2.08294251281509       -5.00624061201093       -0.35376667984670
C            1.78118469331495       -6.51288588879369       -0.36819882714562
C            1.04905410952703       -6.87195091197105       -1.67483880865419
C            3.10321367838188       -7.29783685336987       -0.28254018264042
C            0.88968948835151       -6.93092124092639        0.81743914975290
C            2.86478457728458       -4.46310572504367       -1.35417978547406
C            3.12842617867204       -3.09303157443615       -1.36428702011176
C            3.82926747925770       -2.27227099695915       -2.31345173594806
C            4.46133449843050       -2.59558339399864       -3.51451736007532
C            5.00645991920115       -1.59607574994434       -4.29594307393552
C            5.67360610906166       -1.96270945248271       -5.63073581376866
C            6.85168729613815       -2.91847664327419       -5.36658713588840
C            4.64084172121007       -2.65279055685721       -6.54148038939516
C            6.21147089747420       -0.71842479353283       -6.36402126528178
C            4.93493882898942       -0.27272992259038       -3.83624158613162
C            4.33163333152576        0.08944779539207       -2.63864227010558
C            4.41622168020423        1.47323007775478       -2.17280298459426
C            4.64646364586592        1.87731975694583       -0.88819203186994
C            4.68848950575743        3.28940474146109       -0.73035018569021
C            4.49837216646713        3.96374247129463       -1.88678899474517
S            4.26559943636574        2.87387305770145       -3.20940338480800
C            3.72495123852490       -0.94064715928889       -1.87579328187317
H           -0.06217181815878        0.80811392932056       -0.69223272423362
H            0.17540112171405       -0.91809438889600       -0.43343691562166
H            0.59391560195342       -0.20455534352676       -1.98018685683652
H            2.03067991871164        0.40455585907458        0.66589581371141
H            2.41026770680091        1.12486406677323       -0.87390287165844
H            3.15078355864954       -0.88916269749617        2.31392348074309
H            1.82691042508743        0.27754552272384        4.23474415744817
H           -0.60532770192160       -0.53951338394065        4.40047621957911
H            1.00159339237798       -4.56616854208618        1.44670396923457
H            1.66123661512316       -6.64685078439010       -2.54712358909874
H            0.12059348222767       -6.30834661400752       -1.76299632654609
H            0.80381763812348       -7.93327316356360       -1.70541422262833
H            3.75077674277642       -7.07649091457600       -1.12989176604393
H            2.91917819382914       -8.37189650465816       -0.27569797591388
H            3.64429838764098       -7.04223294025359        0.62812420921418
H           -0.06669275862801       -6.40927421101496        0.79235003633718
H            1.37636629227625       -6.71866076213589        1.76898583774497
H            0.68206866978405       -8.00032168030466        0.78609539213014
H            3.25922110051181       -5.08035197897695       -2.13976016443801
H            4.49990284927217       -3.62192349896932       -3.82891002407070
H            6.51546174474773       -3.84029378627923       -4.89377699742748
H            7.58527369824252       -2.45294090118202       -4.70892540263835
H            7.35328320274342       -3.18509982937215       -6.29653732522856
H            4.26765748572133       -3.57212847720695       -6.09218554193716
H            5.07990229201339       -2.90806794309547       -7.50560872832014
H            3.78843066642883       -1.99817854663345       -6.72136812858821
H            6.96850520104659       -0.20828984378409       -5.76902653692306
H            5.40888315167034       -0.01450538798578       -6.58271100891529
H            6.67171491127784       -0.99760196572720       -7.31161493712828
H            5.38651231519712        0.51183293110146       -4.41370868874204
H            4.78738240858752        1.18251352206185       -0.07451401168198
H            4.85613441395812        3.77278932932390        0.22138003902249
H            4.49168651794284        5.03266971790885       -1.99021572387395
