56
 energy: -11.537842166118 gnorm: 0.000516373066 xtb: 6.5.0 (97a52f5)
C            1.89418737284951        0.65791332500770        0.13317203917019
C            3.26774759283997        0.02547936128296        0.10047682340721
N            3.47907560352653       -0.75560396003523       -1.12561636960929
C            3.90289246337071       -0.23574511129594       -2.35566054852852
C            4.33116638923998        1.03906356958587       -2.71464241989776
C            4.72479808992119        1.29371808047186       -4.01990644219868
C            5.20820102394376        2.62153141408540       -4.37258316299892
C            5.62724216632292        3.05264347302485       -5.60202232987568
C            6.06172082586269        4.39863756212655       -5.62255475692916
C            5.98374789446666        5.02900550543061       -4.41161559287926
C            6.36923881833979        6.39302342799424       -4.14521162849874
C            6.28476177368933        7.01922790900761       -2.93439022971273
C            6.73741957298963        8.36629559270682       -2.95322591093509
C            7.16544138869933        8.77174035413440       -4.16997275280676
S            7.02313984892379        7.49924757077975       -5.33144035127066
S            5.34515168165927        3.92677015779317       -3.22127242836980
C            4.66953157556762        0.24606580247633       -4.97130603502636
C            4.24869064346843       -1.01387166447645       -4.63445328886320
C            3.86409009416120       -1.26720500025326       -3.31362120276030
C            3.39497909936784       -2.45218793019746       -2.64560767465696
C            3.16678894357271       -3.75871541839941       -3.08849748672999
C            2.71746626638472       -4.68767011446578       -2.18816739600042
C            2.47402498023215       -4.36542788255338       -0.83210820137344
C            2.02130031075571       -5.40318506797528        0.08498290839142
C            1.64744695104635       -5.23903040154051        1.39137591308368
C            1.26980549185224       -6.43882396728091        2.03825707952715
C            1.34510958712863       -7.54881792278387        1.24339142374689
C            1.03038505552505       -8.89679112058513        1.64847604913291
C            1.10782395010374      -10.00346955397745        0.85190681643999
C            0.74351990864878      -11.20942867101772        1.50972608451119
C            0.38727702108069      -11.02983524237820        2.80157956855130
S            0.49137979632258       -9.36240556194131        3.24585776381517
S            1.88644713242319       -7.08913088257962       -0.34883493362705
C            2.69431121772911       -3.06517930107874       -0.39827893998693
C            3.15872240481135       -2.10928446395828       -1.29933604186903
H            1.72963843724868        1.24029447162243        1.04204726774586
H            1.11414714241966       -0.10284351498670        0.07813108904941
H            1.75196991504117        1.32342385077396       -0.71956837703370
H            3.41981571701965       -0.63545566102934        0.95982322999635
H            4.05455596168305        0.78427383421955        0.16275162799875
H            4.36792250310188        1.81989523425460       -1.97959133865648
H            5.63572291438299        2.42494166232063       -6.47878107847564
H            6.42963769147363        4.89046047760120       -6.50952683546469
H            5.90943808498473        6.52852332251983       -2.04992987947902
H            6.73535508769269        9.00154965728800       -2.07925887974293
H            7.54437817023192        9.74879637116516       -4.40363601895084
H            4.97187553123124        0.44616935686976       -5.98354018291994
H            4.21283501321046       -1.80516727907458       -5.36220819560417
H            3.34947906136146       -4.01622457456035       -4.11673593903267
H            2.54241582203293       -5.69936165403763       -2.50868926374506
H            1.63862891215334       -4.28252278372655        1.88930466926418
H            0.95353185649671       -6.48346412648563        3.06875249629833
H            1.42015933823527       -9.95773286361754       -0.17969674270597
H            0.75201999702486      -12.17365298142046        1.02239145425320
H            0.07849566085190      -11.80617402870964        3.47595409963314
H            2.52639424526322       -2.79117263815230        0.62515045327556
