42
 energy: -8.593411396927 gnorm: 0.000571897684 xtb: 6.5.0 (97a52f5)
C            1.17271403417934       -0.66802149237014       -0.43300375316718
C            2.51968225269570       -0.12862056855581       -0.00666053763787
N            2.91176428051826        1.04555005730379       -0.79763838307113
C            2.52998870596770        2.36712086624028       -0.53250713691439
C            1.81039543972156        2.91931071454799        0.52398039455209
C            1.55251165406529        4.28084489178032        0.54647815651869
C            0.79164660357387        4.84539658625730        1.65692555516815
C            0.39097516975113        6.14205770967910        1.81026323176403
C           -0.34048505052380        6.37969884807751        3.00688804283018
C           -0.50169344328838        5.27459841183939        3.76823502456040
S            0.24591172507374        3.90517151928169        3.02749800536886
C            2.03286603699459        5.08894630077565       -0.51190719448197
C            2.73977459448385        4.56061933329012       -1.56098762153849
C            2.99391449358991        3.18537036707771       -1.58034435123239
C            3.66546006905450        2.32980194780662       -2.52374387178040
C            4.29552885978142        2.58063275401109       -3.74647460718542
C            4.82970137197479        1.52575958036614       -4.43855163157932
C            4.76029834304864        0.19770139914878       -3.95732578951360
C            5.33779149941141       -0.88795065581297       -4.74479650099082
C            5.25091075967984       -2.22544966048394       -4.48115163564498
C            5.91631344636783       -3.04470448677564       -5.43454723794700
C            6.51136221512713       -2.34333420465531       -6.42483039585241
S            6.26619862838259       -0.64723648156020       -6.20823155681167
C            4.13845593778736       -0.04679446726982       -2.74145513624880
C            3.59176411464802        1.01492819933092       -2.02294681675527
H            0.87460500524222       -1.54192938934024        0.14992661111250
H            1.18438875069003       -0.95673142107302       -1.48507643539951
H            0.39643007002649        0.09004913445210       -0.31839044453337
H            3.30122189809371       -0.88843005648496       -0.10936852658624
H            2.51570775036519        0.15586543878592        1.05065287430411
H            1.45211036941982        2.29067248131631        1.31630487528048
H            0.60123353574208        6.91820817457617        1.09151867864293
H           -0.72999410376286        7.35051693406705        3.27780930989571
H           -1.02119435818036        5.23389812208545        4.70708973638693
H            1.83525934266411        6.14566869554365       -0.49002617526592
H            3.09631611516961        5.18085907134501       -2.36429549923272
H            4.34855058368013        3.58561199304863       -4.12625697211196
H            5.31580881654586        1.69868509010793       -5.38230133695955
H            4.71934046129059       -2.63073039045703       -3.63462183754404
H            5.93845138648492       -4.12330768616293       -5.37248950245350
H            7.06307134383369       -2.76538079344627       -7.24365528575614
H            4.07298129062989       -1.04239286769184       -2.34740432219088
