56
 energy: -11.537605623808 gnorm: 0.000563978224 xtb: 6.5.0 (97a52f5)
C            1.50144532358366        0.82038009055980       -0.74026860217963
C            2.45886802861912        0.34070146796064        0.32767019983560
N            2.91635695416540       -1.03185506072076        0.07367781923341
C            2.25453428089717       -2.19787413417750        0.47839949653705
C            1.11253868672339       -2.39390369212918        1.26069906241403
C            0.68959791180529       -3.67341960495887        1.50577175822462
C            1.37443525509279       -4.80043431617704        0.99026121765090
C            0.92684127450027       -6.15746246263136        1.27369094383102
C           -0.22130780502542       -6.52971142611943        1.91877885651786
C           -0.37704238747649       -7.92887150782896        2.05901139010911
C            0.64738034252057       -8.65998124847120        1.52557919726452
C            0.74842287439448      -10.09867519428326        1.54207197268108
C            1.76828023748957      -10.83088345299663        1.00449270265046
C            1.61617463016534      -12.23442420075022        1.17065417897234
C            0.48620454071860      -12.57743920510684        1.82873000469171
S           -0.42632130016384      -11.17475378756960        2.26378843612647
S            1.82579442288732       -7.58364506265299        0.82001554690956
C            2.50505977125122       -4.60055685398082        0.20977302093467
C            2.94540623583605       -3.30579069435465       -0.04755027151609
C            4.05611492535691       -2.79298609565991       -0.81251534969689
C            5.04792882961667       -3.42215707524183       -1.55868549549256
C            5.99969689698858       -2.65868734178559       -2.22096239200381
C            7.02759479765241       -3.32074693832522       -3.01273059423985
C            8.07936136329094       -2.73082888817861       -3.65980358361599
C            8.90834668284839       -3.63845032559335       -4.36027302569545
C            8.51161072716560       -4.94311512097171       -4.26571255681638
C            9.16822464089553       -6.06757770301437       -4.88588406831675
C            8.76912970784272       -7.37052714999587       -4.79531911374846
C            9.60013645778510       -8.27560976886473       -5.50997509970228
C           10.63049429068843       -7.67215052980306       -6.14379165152564
S           10.60561678153325       -5.96425401245025       -5.87685131870342
S            7.07877438999666       -5.04599790343867       -3.27547538659747
C            5.93710288809979       -1.24766369808507       -2.12072974254830
C            4.96515625739111       -0.61556922985823       -1.39142460519437
C            4.00964496960924       -1.38886647161195       -0.72537784963405
H            1.15692397497817        1.84017183863119       -0.55720669169237
H            0.62310922701178        0.17554862338418       -0.79306795699484
H            1.97306848631416        0.79883226593430       -1.72382091197190
H            1.99362275710165        0.36930469694104        1.31830719387074
H            3.33888363500821        0.98897028096587        0.39056182788292
H            0.58544623012996       -1.54578022388397        1.65954547199729
H           -0.18246017169220       -3.83004933713065        2.11504209438714
H           -0.94854636120899       -5.82442895497581        2.28833193195650
H           -1.22369708397332       -8.38658700956815        2.54639121206290
H            2.61000560619976      -10.37787936335254        0.50435124284196
H            2.33638476553627      -12.95328470812320        0.80747501535457
H            0.18164119500019      -13.58085237163946        2.05944987617241
H            3.04089565303156       -5.44006358300779       -0.19107418294349
H            5.07150037177002       -4.49334962777533       -1.62597419185264
H            8.26640519030256       -1.66900231875247       -3.64135545072307
H            9.77728917526701       -3.33599554446944       -4.92353435033804
H            7.90106694818215       -7.67608665413181       -4.23245388021120
H            9.42114923506106       -9.34054933022494       -5.54328093474311
H           11.37284242257680       -8.17035857740634       -6.73835822363647
H            6.67116189832115       -0.65737970137666       -2.63924579023840
H            4.92441296034261        0.45700819919373       -1.32741839851852
