58
 energy: -12.623957000555 gnorm: 0.000984088218 xtb: 6.5.0 (97a52f5)
C            1.13424294530524       -0.96456891376664       -0.28175869826117
C            2.42192752989724       -0.46177687803160        0.33237797545000
N            2.84937234558927        0.81065124159833       -0.26476262200783
C            3.63686391825604        0.94367247220403       -1.41314547817503
C            4.28040391198221       -0.00357783108186       -2.21390757830364
C            5.01368247390900        0.42615349119031       -3.28521636680206
C            5.14627364534820        1.79747529285841       -3.61183902535317
C            5.93669138636135        2.28017724011881       -4.72994040241368
C            6.63766257161710        1.57058582985628       -5.65159389253798
C            6.65948599397494        0.17114973526590       -5.66802727487148
N            6.67814504178098       -0.99074975132865       -5.68231097818702
C            7.39793029516018        2.26241087837231       -6.71203325024702
C            7.87021681432630        3.56691421284150       -6.55341014964261
C            8.57548972900434        4.19121310341469       -7.55854194011781
C            8.82961199142867        3.53044408828718       -8.74300881639335
C            8.38153437110482        2.23724811652692       -8.91708449374242
C            7.67846860514742        1.61037418795252       -7.91326560436452
C            4.49437949768308        2.73450297611773       -2.81450246542570
C            3.74274636063884        2.31213114666654       -1.72398282679915
C            2.97084175872954        3.03398519678198       -0.73812496788401
C            2.70230100303989        4.38744174143552       -0.56985735424581
C            1.89282835487443        4.80812817743351        0.48197464135088
C            1.61880688620503        6.22789939573302        0.61085574833755
C            0.88926147803497        6.87606526800501        1.55538767745122
C            0.29586025859029        6.21318925362630        2.63566232842618
N           -0.19736340737144        5.66550028582936        3.53413370595574
C            0.70789053558525        8.34040802477372        1.49036217878540
C            0.79093620211714        9.04295150563456        0.28641946909739
C            0.61452903769689       10.40856680138516        0.25031674065066
C            0.34831870388520       11.10583155022594        1.41089121145647
C            0.25261792151630       10.43059518955214        2.61025818026058
C            0.42610173635394        9.06549409790527        2.64868734674449
C            1.36385393288258        3.82973153877499        1.35801226595889
C            1.61597427136922        2.49459233909320        1.20242153669736
C            2.42938016076635        2.08053528242685        0.14432526352728
H            0.81269297710995       -1.91255696497714        0.15397956932594
H            1.24861660868730       -1.11252184575495       -1.35666320056368
H            0.32875706171581       -0.24192427317814       -0.14231296046064
H            3.23136105361832       -1.18814576373383        0.20628613417408
H            2.31531806180395       -0.31445168777591        1.41201262097424
H            4.19133265354836       -1.04965426315708       -1.98170042184016
H            5.50294897097422       -0.30565867739373       -3.89798503725231
H            5.94403858323938        3.34970005537988       -4.83927171878422
H            7.70672904510181        4.08288872115407       -5.62386902133828
H            8.93363356181288        5.19808571596307       -7.41834252776434
H            9.38042313474459        4.02177798034541       -9.52831764300491
H            8.58378441979527        1.71709098244447       -9.83908863441989
H            7.33250896770938        0.60095096468800       -8.04920833854342
H            4.57151449680316        3.78357567058640       -3.03300645984302
H            3.11570800306314        5.10115166335704       -1.25827792242291
H            2.07568886053716        6.83886059720302       -0.14671850912599
H            0.96664996342370        8.50884657429023       -0.63049891592949
H            0.67955778082336       10.93417573535954       -0.68844678661993
H            0.21039068334471       12.17424453380271        1.37960869757515
H            0.03948030353881       10.97225405299166        3.51727217523991
H            0.34646603887560        8.53979621312536        3.58389099479018
H            0.74087683084171        4.14200193158871        2.17325296755283
H            1.20094367606716        1.76587579600655        1.87534285391523
