82
 energy: -17.369287668010 gnorm: 0.000824437798 xtb: 6.5.0 (97a52f5)
C            0.60412073833234       -0.50897474876897       -0.23320624510263
C            2.06760669371973       -0.18489289610172       -0.03409679388345
N            2.62943057987755        0.53254787011865       -1.18607767532288
C            3.16863592555121       -0.06394245954923       -2.33147036619006
C            3.38244194657772       -1.40448720386030       -2.66504369802941
C            3.93016251586670       -1.70359025012387       -3.88367761979548
C            4.28565270335464       -0.69658514520136       -4.81434370367732
C            4.87752012440259       -1.02184252729906       -6.10232089316604
C            4.84547336758214       -2.23381722281360       -6.68246461878154
C            5.45377730280867       -2.56750309566729       -7.96018203995204
C            6.43409972833348       -1.74391078158324       -8.56095655848354
C            7.01796294117297       -2.06195844075081       -9.75831327213239
C            6.63982287349210       -3.23718898849764      -10.42192159003947
C            5.66197558487892       -4.06384169125577       -9.82946754560352
C            5.07900283398283       -3.73632807433775       -8.60908440843805
C            5.44929483480888       -5.18419342269778      -10.70852268354893
C            4.59865749229766       -6.28321876326019      -10.63352329534360
C            4.59839005607945       -7.21585216028581      -11.66021826681634
C            3.70838138181209       -8.35957698904381      -11.59580524125481
N            2.89442239920294       -8.57418525373873      -10.60189729989659
C            2.15474660668726       -9.73099552265656      -10.78639065004365
C            1.19267135579602      -10.23455518311135       -9.89794221486259
C            0.52856907152026      -11.39561171712619      -10.20477323058032
C            0.79804890249584      -12.08104850346844      -11.38861679083075
C            1.73629513922987      -11.60440462260907      -12.27239855902705
C            2.41422308431371      -10.43079166244600      -11.97258299367056
S            3.63598668464414       -9.58682868334259      -12.87174863600531
C            5.46611285143065       -7.03125216235211      -12.76057437123452
C            6.30756294789420       -5.95463660056688      -12.84497792582399
C            6.30490648631428       -5.01249804300671      -11.81007415955509
N            7.03661951627197       -3.82987755062887      -11.63641695146670
C            8.01975052579111       -3.38894650175372      -12.64947990786695
C            8.85055085191772       -2.17779512547699      -12.29071543193288
C            4.07211843246828        0.63571271410213       -4.47830225587804
C            3.50956735571272        0.95212279848902       -3.24497052860213
C            3.13707407071092        2.20987875484025       -2.64118594540943
C            3.20174643849382        3.52329274723460       -3.09766480214551
C            2.72160559793397        4.54810433613591       -2.29497461799964
C            2.76701210414491        5.91917550678170       -2.76637682314936
N            3.26608601578844        6.26509281883656       -3.91857102921545
C            3.17479282926032        7.63214567331084       -4.12658635989825
C            3.61739656807692        8.31482926350106       -5.26950566345196
C            3.45983785250621        9.67579763075223       -5.34932012789691
C            2.86531942635154       10.38854736905093       -4.30868642757094
C            2.42557297235759        9.73883990369132       -3.18044881933698
C            2.58024024419763        8.36248810021544       -3.08836681272466
S            2.13540316922361        7.27219957264165       -1.81312267603284
C            2.17837751069578        4.23780838790470       -1.02710820775128
C            2.10899162167451        2.95139426639480       -0.56482831806567
C            2.59024722075103        1.91896118555496       -1.37599008568493
H            0.18015322599292       -1.04277777150189        0.61978967542590
H            0.45992101137756       -1.12825786040193       -1.11971325221141
H            0.02052545539994        0.40106260251681       -0.38064831814267
H            2.65676830786118       -1.09414180788456        0.12369142792917
H            2.21925755664576        0.42940156895850        0.85937522962690
H            3.11720982136405       -2.17846556490427       -1.96729902452924
H            4.11298718962057       -2.73298490800174       -4.13524123165544
H            5.34671721968433       -0.21148120531893       -6.63008163549477
H            4.30460802326430       -3.02287161505840       -6.19230293277788
H            6.74491962552943       -0.85042726930986       -8.04938627455845
H            7.76291943415840       -1.41370124017054      -10.17767257057230
H            4.33725326110249       -4.38389006601581       -8.17916907110915
H            3.94397125242041       -6.40674325555997       -9.79184452146398
H            0.98960837851603       -9.70027512604174       -8.98710285479902
H           -0.20983731316865      -11.78403649176729       -9.52277442477535
H            0.26681786953745      -12.99179612457977      -11.61117780220198
H            1.95410390304529      -12.12315165078575      -13.18980841914282
H            5.45277986841578       -7.76369889509872      -13.54804815921674
H            6.95991060225649       -5.82218972033128      -13.68931183238030
H            7.46946930509281       -3.21196490349813      -13.58003041543543
H            8.67417129548880       -4.24468748715371      -12.84930321680982
H            8.22829676553726       -1.28764350736126      -12.19139885953391
H            9.60048295748236       -1.95924775494555      -13.05423851269769
H            9.38200929324328       -2.33043895668864      -11.35030653849976
H            4.32745523412286        1.41934327570797       -5.16756848012857
H            3.60876821159190        3.74189047334773       -4.06664245368424
H            4.07450230050869        7.75880739034563       -6.06846585674809
H            3.80011760125633       10.20168495337569       -6.22616666170827
H            2.75061926678416       11.45695360559857       -4.39027410874122
H            1.96410041163681       10.27657880946223       -2.37041728374250
H            1.81010414294415        5.04520946610564       -0.41944772686575
H            1.68749304249651        2.72537413077397        0.39808124581267
