68
 energy: -13.182894350034 gnorm: 0.000677780465 xtb: 6.5.0 (97a52f5)
C            1.09837631880142        0.44306972852321        0.60082537111623
C            2.58271577514851        0.14423249728105        0.65969830844498
N            3.09175172375765       -0.40202609517454       -0.61335282994779
C            3.10337968123455       -1.79687384166936       -0.81574698874841
C            2.51329626887881       -2.69118639490230        0.08687268466691
C            2.55663701137110       -4.04607627125463       -0.12863532402136
C            3.18379149199253       -4.55392699314102       -1.24844733515335
S            3.24226996928260       -6.32340534799678       -1.52943239727180
O            2.32710699061263       -6.61278409914636       -2.67402418365502
O            4.68182620174578       -6.67138448760643       -1.72576767889419
O            2.64428180786886       -6.97353983567284       -0.20655553839412
C            3.76212134813338       -3.70866167267789       -2.15312622419414
C            3.72784248111648       -2.33216972838424       -1.95920507494515
C            4.33485634312940       -1.45681907225013       -2.95372758885121
O            4.90546798320157       -1.90825694981710       -3.93420617692074
C            4.22337235404759       -0.01924670331568       -2.74527079914964
C            4.73937712760794        0.84076968357614       -3.69738076112690
C            4.64587712358904        2.22151474092384       -3.57129353083996
C            3.97872834811478        2.72708360316521       -2.43714235710058
C            3.47328041119214        1.86726562492299       -1.47894304538808
C            3.58743676902927        0.48707797771702       -1.59356203529039
C            3.80058857346668        4.16289679306679       -2.26686075753955
O            3.24699269480629        4.61660724582650       -1.27776393320205
C            4.29343540377303        5.03461578363695       -3.32512321020742
C            4.09056163463265        6.40645396828147       -3.22616595244040
C            4.52688966479549        7.24849049340226       -4.20989033003323
S            4.24945784159930        9.01242807009791       -4.05421700718085
O            3.43748928990185        9.21725178207534       -2.81714470500593
O            5.59317494766823        9.66342387866282       -4.09981947673622
O            3.35875359715938        9.38054904315735       -5.31926128103374
C            5.17323992128501        6.74251398889456       -5.31964334680548
C            5.38709723203274        5.39172626738275       -5.43846726316134
C            4.96248290984514        4.50109859756701       -4.44361961894169
N            5.18294221725383        3.11164060016185       -4.52845130204424
C            6.00162674595589        2.57104479370828       -5.63056315971985
C            5.15929909512446        2.21532550500655       -6.84927431975450
C            5.98357569492023        1.64962054153917       -8.00761259101832
C            5.13429148762711        1.28290243917638       -9.22640789505263
C            5.95395777462222        0.72973219174662      -10.38798102490864
C            5.08399192204413        0.40697818279604      -11.57465480041573
O            4.39444531821893        1.29570081411874      -12.02585796540886
O            5.11645269494784       -0.85543920590607      -12.07749765953322
H            0.72437033455931        0.84913224725907        1.54279762905968
H            0.52585684148263       -0.45713205969647        0.37429103513164
H            0.87453673717213        1.16459247343781       -0.18582766902837
H            2.81871548074630       -0.55943788046930        1.46378187735005
H            3.16074667992844        1.03832413126257        0.91312899105376
H            2.00002140356841       -2.32038992337178        0.95520226030487
H            2.10407979890034       -4.72885636409872        0.57236821514591
H            2.25211228161102       -7.83735454655801       -0.37803009201776
H            4.25264246953499       -4.10140029505648       -3.02878630285722
H            5.20185883336818        0.39670295953790       -4.55817623479595
H            2.96416682903666        2.30959704709554       -0.64371665660997
H            3.57833042691439        6.80159861213898       -2.36340941710171
H            2.64021977330681        9.98058067605804       -5.08776931508935
H            5.50469722655562        7.41998009143220       -6.09027060142212
H            5.87309959153882        5.02041611599369       -6.32191570444466
H            6.55559630224039        1.70108581136890       -5.26888748176388
H            6.77992002136887        3.29399114146500       -5.88689454836000
H            4.60820599377282        3.10152824137428       -7.18355937367496
H            4.38416177012650        1.49670397025655       -6.56021376615014
H            6.53639262694388        0.76613707711511       -7.66751489349861
H            6.75145266741772        2.37516797303487       -8.30030679827053
H            4.57612930812362        2.16238947262636       -9.56961790820341
H            4.36931562569439        0.55199663741942       -8.93916799680679
H            6.50910440320777       -0.15516455424716      -10.06613446341572
H            6.70580945730300        1.46258860583387      -10.69589573349817
H            5.73170692406155       -1.43753579865942      -11.59679394524745
