10
 energy: -1.587065234494 gnorm: 0.000826368153 xtb: 6.5.0 (97a52f5)
C            1.01495302603362       -0.01629315483689        0.06827185167224
N            2.40128079164466       -0.02325829587414        0.06908330246046
N            3.03211593459218       -1.06199246546453       -0.08097097679622
C            4.41837414207925       -1.06912689796023       -0.08034661064034
H            0.64225174285803        0.99888095997065        0.20675618407562
H            0.63952729655325       -0.64398929020311        0.87640522770839
H            0.64218575416461       -0.40394076706079       -0.87977332451808
H            4.79097285141822       -2.08356338899853       -0.22437430306701
H            4.79127329550130       -0.68638391937448        0.86963573075345
H            4.79370516515488       -0.43692278019795       -0.88501708164851
