50
 energy: -10.438121898439 gnorm: 0.000416753997 xtb: 6.5.0 (97a52f5)
C            1.14292923751150       -0.63698536256363       -0.07613865640186
C            2.40583267336488        0.18906282571326        0.02448645304965
N            3.03986947008036        0.38090335402115       -1.28713998279957
C            3.95919464019718       -0.49112288009340       -1.88274113557990
C            4.56065821071729       -1.66020206912620       -1.40943479720573
C            5.46317004843845       -2.31062291779936       -2.21351298315825
C            5.78334379946442       -1.81797610252350       -3.48340295918098
C            5.19807696144332       -0.67366597558661       -3.96288603469733
C            4.26762825454576        0.00030144447532       -3.16634979676244
C            3.49024456497348        1.19741114715962       -3.36926859472953
C            3.39276245648941        2.10846951586728       -4.44905698582690
N            4.08088027829510        1.91088953462168       -5.69585929699795
C            3.89137137337590        0.70419502129221       -6.44728793028496
C            2.75036810701743       -0.07365032805581       -6.26590222275523
C            2.58212461621413       -1.24968160236864       -6.96195711078212
C            3.54985153652588       -1.67194757937545       -7.85285526941090
C            4.68788179002301       -0.91254975331757       -8.04423183643695
C            4.85810099518937        0.26368627695151       -7.34880874306773
C            4.79861927166895        3.01834144664685       -6.26455450247996
C            5.56338542502522        3.84919800031658       -5.44932906709071
C            6.23657801492437        4.92769018055294       -5.97821962718072
C            6.15516443612718        5.19931218965103       -7.33039651684530
C            5.39468792756759        4.38895058979870       -8.15134112613845
C            4.72092846085021        3.30964990510602       -7.62449567064624
C            2.57237668742047        3.21533866601895       -4.27426112276692
C            1.84574438707779        3.41808167247325       -3.10358014737514
C            1.91852036067518        2.52664691219679       -2.06157763084500
C            2.75095754029152        1.41190151243169       -2.19031698373773
H            0.66507761821165       -0.78015418786875        0.89545580827125
H            1.35496882341908       -1.62311633836424       -0.49222552273423
H            0.41758006226427       -0.16049571219416       -0.73749062923963
H            3.13451966320680       -0.28188856869182        0.69231862790595
H            2.20017492672425        1.17460709628074        0.45470973854370
H            4.31285758862636       -2.03306383992311       -0.43166890061881
H            5.93521685463271       -3.21343317962615       -1.86185306511748
H            6.49694154560464       -2.34721106866591       -4.09348518378156
H            5.43599024636376       -0.29391151539748       -4.93779853687778
H            2.00150714283027        0.25637412450652       -5.56755897054910
H            1.69531686735503       -1.84305686998794       -6.80943917589227
H            3.41826269377249       -2.59331900743185       -8.39645944914856
H            5.44536543764042       -1.24281187280059       -8.73634712149664
H            5.75168766351281        0.84811754886909       -7.48195390442487
H            5.62182002261511        3.63115075983452       -4.39719703420416
H            6.82665064811769        5.56132807791962       -5.33620390233345
H            6.68169725488122        6.04414987646010       -7.74369750729118
H            5.32632110222233        4.60347053144372       -9.20546139964402
H            4.11289083389276        2.68688895862004       -8.25709380020555
H            2.49175004537144        3.92090648518023       -5.08250642331604
H            1.21409174717976        4.28700190501554       -3.01658998155154
H            1.35799968605026        2.67792117237155       -1.15650338818929
