45
 energy: -9.385652630840 gnorm: 0.000464260574 xtb: 6.5.0 (97a52f5)
C            1.40555972793235        2.70534205056795       -0.74132250559668
C            2.74702433835955        3.20943738114913       -1.23015322616618
N            3.76399663826954        3.21509457617598       -0.16335325820927
C            4.84953405948238        2.32716523174074       -0.17885060498022
C            5.43113199500023        1.57451593576353       -1.20770475760942
C            6.47835205557793        0.74114178100835       -0.90924718099859
C            6.96551028360818        0.62591695394217        0.40049763636307
C            6.40836555113854        1.34772358116916        1.42149938615862
C            5.34493254020320        2.21167967268829        1.13119008368838
C            4.54762552895857        3.04908812867366        1.95728409969063
C            4.55191690930844        3.18022946209250        3.40322332362799
N            5.35549714959942        2.61231639577092        4.26784661368989
S            4.87357335781286        3.08476713168371        5.77751947314585
N            3.60083911317739        4.03960063337748        5.32769429742430
C            3.52490684772250        4.00313240161916        4.02056675023414
C            2.59657171055736        4.70633975295294        3.15361775389978
C            1.60834519098429        5.66936897188321        3.49373991110136
C            1.16096553103350        6.15641407062932        4.72830020519155
C            0.20540381740848        7.13648303732894        4.74004857354636
C           -0.31128856124938        7.64961919234630        3.54177107153497
C            0.12333060534904        7.18990594458699        2.32508365525178
C            1.09632610130876        6.18233601049922        2.28967285764563
N            1.75425278725216        5.54863023045254        1.22591487701056
C            1.78906756139303        6.13818124492091       -0.12434082970388
C            3.17483259629277        6.61253603844622       -0.50744902593249
C            2.65036841826939        4.60520138288351        1.75786575109413
C            3.60522566558035        3.69605625001143        1.14817311839604
H            0.65226365972434        2.70210847664460       -1.53168147466581
H            1.02669014675576        3.31895032570097        0.07643957973907
H            1.49107183198312        1.68749530561840       -0.35796820950500
H            2.68550421543575        4.20980885826586       -1.66337974680009
H            3.10995745713747        2.57394374533912       -2.04367882101437
H            5.06588970462815        1.66376538097720       -2.21476469994240
H            6.93592318471903        0.16175297400472       -1.69421267000111
H            7.78577865982056       -0.04227853664752        0.60464028223966
H            6.76012375312878        1.26320206575655        2.43348224427839
H            1.57741021637238        5.75917476555776        5.63595640446059
H           -0.15258548668327        7.52206616745264        5.68036210374498
H           -1.06239236336798        8.42138899641631        3.58002360370043
H           -0.28058951240511        7.58315757694035        1.40982693320203
H            1.08640282568278        6.97646614531874       -0.14976995466216
H            1.38446711518508        5.41407068820491       -0.83436019981325
H            3.52886754035577        7.37518267386222        0.18745004160020
H            3.20181344836288        7.03833383286049       -1.51244441115347
H            3.89549608283414        5.79510711336253       -0.47257905490535
