73
 energy: -15.759801762839 gnorm: 0.000712641710 xtb: 6.5.0 (97a52f5)
C            2.17051513395389        0.77681625096142        0.41195096863362
C            3.19025813502220       -0.32848016438761        0.24972713508758
N            3.09943910389356       -0.96301052057232       -1.07193373812359
C            2.22774719598023       -2.00752838633007       -1.41171252047347
C            1.34485589098299       -2.76457886736835       -0.63764579446345
C            0.60959002325275       -3.74831841894473       -1.24974318000337
C            0.73212300546037       -3.99540966561066       -2.62146134264469
C            1.59131568665053       -3.25851993001114       -3.39877570686898
C            2.34771104984764       -2.25370344718999       -2.79196672592433
C            3.31335105876550       -1.31561883979640       -3.31078946401281
C            3.81204571353449       -1.10179772192695       -4.59347112432988
C            4.75248193724846       -0.10234536876297       -4.79990054713815
C            5.32298437012959        0.15672982998417       -6.13423801281936
C            4.60992121363716       -0.14777671541514       -7.27428468056823
C            5.17631629137968        0.10032264835293       -8.50667494656790
C            4.44119053868844       -0.19736172767545       -9.74863613227500
C            5.16403020358392       -0.38594542193993      -10.94698211437286
C            4.54356713786798       -0.65895819792423      -12.13647365782693
C            3.14820089310522       -0.74292330202821      -12.16204702153209
C            2.41014803842002       -0.55075826612023      -10.97854933676341
C            3.05595943795940       -0.27859321205472       -9.77502901082089
C            1.01521131030069       -0.70301741166279      -11.31364858897581
C           -0.15021864766407       -0.62841473425434      -10.54795511485964
C           -1.35819552627846       -0.83597055672074      -11.16690404716607
C           -1.42761811773790       -1.11796001509857      -12.53562940399684
C           -0.29211873190902       -1.19512581443983      -13.30227985931375
C            0.94607641063868       -0.98504858348939      -12.69040983199763
N            2.25037123954281       -0.99795762809746      -13.20480603657907
C            2.61593304651459       -1.36174298435977      -14.58018193814241
C            2.72311824964910       -2.86040184018454      -14.75464091199272
N            6.40329929360026        0.60909207877401       -8.59721472861450
C            7.01804906473844        0.88299787054893       -7.44641974073699
C            8.36977144552811        1.45616789244616       -7.54313969778569
C            9.08160010256445        1.79828295526623       -6.39718436610543
C           10.34584552056611        2.33217494861004       -6.48638230794847
C           10.94135716309925        2.54198130553974       -7.72619408339630
C           12.23333013025791        3.08348992143976       -7.81730365389129
N           13.30425703251269        3.52737400284275       -7.88730133975102
C           10.23074020946992        2.20174857917812       -8.87297090375709
C            8.96649946163694        1.66816015200521       -8.78233612829268
N            6.53826127540671        0.69320080679303       -6.21734918347876
C            5.18708439466791        0.67299932464620       -3.70263811197085
C            4.70040466476270        0.47930193146123       -2.43787166547985
C            3.75410135244089       -0.52857898479146       -2.22972141550458
H            2.22995004428844        1.25203865740329        1.39312839554715
H            1.15724464703119        0.39222849567600        0.28790504292645
H            2.31293029626624        1.55088894155334       -0.34339514557534
H            3.05902587935301       -1.10376436817148        1.01137003115325
H            4.20909534477815        0.05047237602086        0.37894890894129
H            1.25314500785889       -2.57199994625969        0.41616118644599
H           -0.07376959997964       -4.34205872897254       -0.66513806545108
H            0.14204275664349       -4.77533244714980       -3.07376702327925
H            1.68891904308462       -3.44070136269213       -4.45435594425902
H            3.48211056235223       -1.72646708239234       -5.40177290974931
H            3.62716311769107       -0.57224480640086       -7.20088443996533
H            6.23638054702061       -0.30945371548285      -10.90631743284030
H            5.10762243324031       -0.80557704568939      -13.03991563113045
H            2.47332506729131       -0.11237615264706       -8.88906587336790
H           -0.08850629474134       -0.41401811589386       -9.49572180408623
H           -2.26728585746820       -0.78180195523265      -10.59097904995612
H           -2.38991555881086       -1.27583003594988      -12.99420977311724
H           -0.34158550389466       -1.41117134239031      -14.35438599355491
H            3.55993002305716       -0.86589633453959      -14.82760292350844
H            1.86682692535210       -0.93653279350753      -15.25590476745666
H            3.47548625961679       -3.27687745674802      -14.08344876902778
H            2.99385884854481       -3.13823016557846      -15.77524741568123
H            1.77714679428412       -3.34856808077183      -14.51614511959460
H            8.62396421582959        1.63779230656946       -5.43693725682582
H           10.89020680170992        2.59380350723756       -5.59509119534852
H           10.68568584300677        2.36116549038701       -9.83558721600331
H            8.42028747975412        1.40519924805355       -9.67101841818310
H            5.92265556176886        1.43693522117712       -3.88392459649540
H            5.03550691140812        1.08054392068620       -1.61198678699240
