76
 energy: -15.837637743099 gnorm: 0.000575234295 xtb: 6.5.0 (97a52f5)
C            2.16115755273885        0.64081686204814        0.16096322779416
C            3.05088710759233       -0.53755582651957        0.48929736619562
N            3.06910226422458       -1.52609002430774       -0.59728513621662
C            2.13058609405196       -2.55284007224270       -0.77600538617716
C            1.05770476984707       -2.97346301625605        0.01410060575586
C            0.29639375206823       -4.03065597915326       -0.41739708624836
C            0.57855709501266       -4.68055298089464       -1.62425524905986
C            1.62574342325890       -4.27828154056233       -2.41618222244351
C            2.41119701230461       -3.20424790649383       -1.99160412533989
C            3.54886866572834       -2.53997073665994       -2.57948744153167
C            4.24019374416489       -2.74967313020452       -3.77058794442464
C            5.31533801244256       -1.93098647120687       -4.08680425606190
C            6.08728663025247       -2.11279981914268       -5.32942019940111
C            5.51730820051967       -2.71631286848095       -6.43062599017469
C            6.26985647898114       -2.87354112824886       -7.57551904844613
C            5.69122917638567       -3.49956907698194       -8.77798751307413
C            6.55398733795007       -4.07669070755502       -9.73587724361981
C            6.08292825306442       -4.66921340767670      -10.87673016345525
C            4.70309901136842       -4.69210623119622      -11.10050202727207
C            3.82761989736400       -4.11444096839084      -10.16121500153835
C            4.32165692068634       -3.51962415174193       -9.00242625953956
C            2.48556630497268       -4.29646889661577      -10.65854192218859
C            1.23575716502792       -3.94176216401656      -10.14563044433213
C            0.11229921714625       -4.27561549802552      -10.86106504323615
C            0.20956905488322       -4.95958648318012      -12.07807699265563
C            1.42946456873748       -5.31689190493594      -12.59539175981510
C            2.58434372836900       -4.98203212691681      -11.88379782136761
N            3.94163248847452       -5.20871920963189      -12.15484483957550
C            4.46733932344829       -5.97940212776163      -13.28972008849158
C            4.58451349958082       -7.45160803666239      -12.96317815860191
N            7.53652274780672       -2.46506755358691       -7.61414621429976
C            8.00443754906485       -1.87987721440648       -6.51090534635628
C            9.39703954287693       -1.40885137992637       -6.55641958182021
C            9.95928119094993       -0.73768613097447       -5.47370364605721
C           11.25777648578547       -0.29740522076507       -5.51687249649207
C           12.05753980169790       -0.50910494769415       -6.64575182566030
O           13.37137024270215       -0.03007529992301       -6.60853420305772
C           14.12690886702062       -0.28731897454376       -7.77104550416812
C           11.48756120782826       -1.18476738624497       -7.73106990814961
C           10.18725547719183       -1.62218867862759       -7.68331154662996
N            7.34356259599505       -1.67453226287066       -5.37115629014940
C            5.68893393595939       -0.90738275686867       -3.18821962396179
C            5.01442919901628       -0.68435800648261       -2.01783730781704
C            3.92899514482165       -1.50686292076909       -1.70147624944564
H            2.14125358753146        1.37942347098150        0.96493265742680
H            1.13541075572865        0.31557826635891       -0.01875852710873
H            2.50037157476790        1.14350521706853       -0.74593175792343
H            2.72091139659742       -1.04023566203859        1.40419879051934
H            4.08015308916969       -0.21582866180368        0.67797940992883
H            0.84288296989975       -2.47086065367327        0.94004727535509
H           -0.53298271426782       -4.36773897398562        0.18253870921418
H           -0.03683330947724       -5.50821331484926       -1.93639491388270
H            1.84744051880308       -4.77058285123697       -3.34655862065505
H            3.94766223395499       -3.55475645612889       -4.41754023764255
H            4.50058005216216       -3.05746237913174       -6.39664633735683
H            7.61266483291127       -4.04199675970722       -9.54782879205780
H            6.75033146616330       -5.10974930984375      -11.59547400524129
H            3.63941435341070       -3.06448284960134       -8.30992238273635
H            1.16928117122186       -3.41901681368342       -9.20785188683572
H           -0.85974033908496       -4.00852449625760      -10.48028625764189
H           -0.68976981686255       -5.20969858147282      -12.61659806248813
H            1.50756924550914       -5.84551843993004      -13.52842453265090
H            5.43772634690828       -5.55757067444097      -13.57063139458818
H            3.80922829603983       -5.81596541859522      -14.14916925006338
H            5.25486823299972       -7.61030533591193      -12.11743146501446
H            4.96652980268386       -8.03212000839748      -13.80542816526651
H            3.61465181949856       -7.86663300544314      -12.68561959400356
H            9.35516041804278       -0.56844966839439       -4.59979533363593
H           11.68784303883699        0.22144206664154       -4.67862418171160
H           15.12711964114636        0.12678200112748       -7.63722896116966
H           13.66136486385400        0.19163110534262       -8.63345533971797
H           14.21000002607442       -1.36304619837852       -7.93176921624341
H           12.07260279653198       -1.36547263089947       -8.61420489843888
H            9.75707480152341       -2.14044182515948       -8.52224377947875
H            6.53127513358586       -0.29044670181030       -3.44763303196686
H            5.30575297476209        0.10281990658626       -1.34590800834050
