72
 energy: -15.234491963791 gnorm: 0.000639684292 xtb: 6.5.0 (97a52f5)
C            2.17716973513939        0.63375070700286       -0.15357039569960
C            2.81983077470950       -0.50822395668246        0.60212451358076
N            3.02268968205554       -1.68392560692274       -0.25530704788694
C            2.06221542855393       -2.67197820670459       -0.51746542621372
C            0.77845187836280       -2.87454865355328       -0.00425145969113
C            0.05141304773956       -3.94910959097798       -0.45185727863584
C            0.57499600523032       -4.82983141785657       -1.40518576956010
C            1.83299892036527       -4.64477195432230       -1.92387679871404
C            2.58674048406509       -3.55662084664119       -1.47838144379719
C            3.90450163132368       -3.08060838518518       -1.82338059805756
C            4.86247275671648       -3.55094132806416       -2.71860815475098
C            6.06418161297643       -2.86891395892348       -2.85007623319848
C            7.11530098900372       -3.32611766054497       -3.77724866315658
C            6.79667774871201       -4.09296668200046       -4.87821475477285
C            7.80506850498061       -4.50843866009922       -5.72201502561283
C            7.50164330132061       -5.31669468826814       -6.91703936612071
C            8.51047813731497       -6.13801299945484       -7.46708228864137
C            8.29650227845238       -6.90799035445998       -8.57881283129500
C            7.04016374559063       -6.86827645071713       -9.19110386262159
C            6.02434750102794       -6.04912140929882       -8.66193350295216
C            6.25526901482636       -5.27582088904679       -7.52652882122411
C            4.85762986001597       -6.22303370198554       -9.49317243017046
C            3.57308252119716       -5.67744324373789       -9.43819049101688
C            2.65507791152329       -6.05910791721104      -10.38556020648381
C            2.99162051732578       -6.97732685738133      -11.38661415578563
C            4.24877687928580       -7.52376130647079      -11.45452844110383
C            5.19744646848548       -7.14483702130048      -10.50117041053438
N            6.53499241356882       -7.52573205633157      -10.31853110137603
C            7.24247894509192       -8.54987326847186      -11.09902135346989
C            7.05662315826249       -9.93144216445128      -10.51211367460291
N            9.07322435163495       -4.18907198740234       -5.47053404488104
C            9.29122687788781       -3.43438507798925       -4.39332553506353
C           10.69192612407516       -3.06617713501116       -4.12058484873533
C           11.01678392482988       -2.25744736722068       -3.03556657946675
C           12.32630897147590       -1.91486798649088       -2.77942418429981
C           13.33494544708547       -2.37477335353944       -3.60313312786139
C           13.02965749575611       -3.17813683765120       -4.68419780609671
C           11.72022471122176       -3.52037221607893       -4.94111091009869
N            8.37773091787879       -2.97719679338532       -3.53676727650428
C            6.29149332763151       -1.71728446884501       -2.06470562330558
C            5.35679263636040       -1.23889804303385       -1.18591219423985
C            4.14415724725529       -1.92317100759064       -1.05797022973010
H            2.02560841645631        1.51229377993277        0.47701724646585
H            1.20581113565356        0.33842550367808       -0.55310107271843
H            2.79345834489016        0.93423518366721       -1.00225769423548
H            2.20816168946665       -0.81024969602279        1.45847091059127
H            3.78974444142200       -0.21292426937125        1.01521337708527
H            0.37922976375646       -2.19504328956801        0.72728770072934
H           -0.93949502102103       -4.11948172472312       -0.06387468212881
H           -0.02013438097677       -5.66466920551815       -1.73702998072647
H            2.24145849406954       -5.31522780263249       -2.65928906854764
H            4.66954933693368       -4.44676953942782       -3.27785622810961
H            5.77682695843362       -4.36110375916948       -5.07702130194720
H            9.47195159914594       -6.14900316308050       -6.98437439275639
H            9.07145186549820       -7.53410983145278       -8.98330065334981
H            5.47532981055134       -4.64074108399411       -7.15122617219551
H            3.32120169183000       -4.97442232163007       -8.66390037288284
H            1.65974845149897       -5.64696825253247      -10.35834650011766
H            2.24977055335140       -7.25877635882097      -12.11595412985172
H            4.51023006361769       -8.23140199803725      -12.22074160882926
H            8.30191523252875       -8.27708582248057      -11.14185903606777
H            6.87994530951063       -8.50641728208388      -12.13115849978253
H            7.42892547705277       -9.97209215940451       -9.48744873306937
H            7.57958880792610      -10.69810807470128      -11.08762806249302
H            6.00013300469306      -10.20148402330717      -10.47920581766778
H           10.22547567861828       -1.90278030105027       -2.39881852172176
H           12.56340879901898       -1.28745254908199       -1.93579015689999
H           14.35949361857906       -2.10719758002118       -3.40224197322838
H           13.81629236648566       -3.53805591070894       -5.32706260195650
H           11.47495357040292       -4.14610410391867       -5.78113150640549
H            7.23348802818137       -1.20903779288095       -2.17376801156222
H            5.54007300611398       -0.35637376737226       -0.59968262175353
