63
 energy: -13.566444272081 gnorm: 0.000472724466 xtb: 6.5.0 (97a52f5)
C            1.67265043778828        0.16175736218529        0.70372256642710
C            3.07248689102599       -0.09747961163258        0.19254028664783
N            3.16025781428192        0.07596036557166       -1.26339642464879
C            2.85087726850358       -0.90544323174091       -2.21588992986080
C            2.51018433142229       -2.25333310028412       -2.07865338672150
C            2.25796940343698       -2.98760823019649       -3.21003955012604
C            2.33549287628297       -2.40752407127511       -4.48093271008588
C            2.66547303750851       -1.08373855056770       -4.63517233219567
C            2.92679068562781       -0.32209486262741       -3.49414366918009
C            3.28011087702241        1.06437704230830       -3.31042915189481
C            3.47507749970202        2.10572552548483       -4.21441204361333
C            3.80565723609743        3.36692852924575       -3.73938623333206
C            4.02602845555268        4.50153705993274       -4.65409500746968
C            3.42740777197620        4.52765067057991       -5.89533291267679
C            3.65644984046893        5.60017512308679       -6.73021793608992
C            3.02012723809417        5.66436700572036       -8.05827497090389
C            3.63337680403940        6.41581623227191       -9.08450288177199
C            3.08999071863677        6.51507386435081      -10.33716860946421
C            1.88406051444943        5.85836375718480      -10.60028154395154
C            1.25436254632579        5.11088332721472       -9.58703931150836
C            1.82218713230185        5.01454870890583       -8.31913079156095
C            0.04755776477724        4.55651017603207      -10.14987372002146
C           -0.95577116438871        3.74699579868421       -9.61293166305182
C           -2.00070037892668        3.37201723514832      -10.42072496478819
C           -2.06489960323887        3.78732181842799      -11.75527645608337
C           -1.08788008816434        4.58321593273322      -12.29826520749584
C           -0.01853033899926        4.97823477127004      -11.49062180727964
N            1.09927091283155        5.78204790513434      -11.75639056958584
C            1.45635470672040        6.32967500335997      -13.07182259883379
C            2.25105720186543        5.33970574623240      -13.89426743468808
N            4.45812805418764        6.59407530328396       -6.35203022749627
C            4.98396281453912        6.49253541050899       -5.13287744476856
C            5.82396922044711        7.55279218271487       -4.72122894030958
N            6.51323045745774        8.42564507864854       -4.38284901045272
N            4.80610937771032        5.50525468348655       -4.25732559678139
C            3.94522308206455        3.56381869085930       -2.34814445160715
C            3.74944811662755        2.55199917672571       -1.44711329792110
C            3.41239274187286        1.28247061785737       -1.92591906887653
H            1.59809647940218        0.03274578895934        1.78527988362527
H            0.95661996359578       -0.51555884858083        0.23625063511996
H            1.35377656690590        1.17738562535141        0.46548916802295
H            3.40190868437182       -1.11247614768350        0.43672636055527
H            3.79692733582063        0.57514572847639        0.66258742610533
H            2.45078003498749       -2.69547760727793       -1.10042700077720
H            1.99552315413708       -4.02885633061910       -3.11977815507467
H            2.13207647234934       -3.00978100723319       -5.35094943109197
H            2.72453492210275       -0.63008367234525       -5.60861214231339
H            3.38943579320981        1.91571271951713       -5.26744995325930
H            2.78862002367376        3.72379222904653       -6.20730419846217
H            4.55761748092186        6.91817597283875       -8.85906639112820
H            3.57049737670530        7.08620462213468      -11.11100647124639
H            1.31530860435108        4.45950536514035       -7.55272380296028
H           -0.89850741524957        3.43084326017499       -8.58645455415160
H           -2.78387288520977        2.74847914132378      -10.02217108790245
H           -2.89722136226352        3.47727407437400      -12.36544673384232
H           -1.13440100572305        4.90435003631155      -13.32328132796021
H            2.01708424804387        7.25694784969866      -12.91689715960556
H            0.53284747199276        6.61880928054931      -13.58368817044239
H            3.17667982388174        5.06641252595755      -13.38590757264056
H            2.51355840690465        5.73688674982995      -14.87677596285991
H            1.68630945415088        4.41888849854547      -14.04632111529114
H            4.21106989889234        4.54693481444869       -2.00148784099834
H            3.85231821414017        2.71755088420183       -0.38979539744508
