66
 energy: -13.644936325571 gnorm: 0.000619791180 xtb: 6.5.0 (97a52f5)
C            1.90466522900791       -0.04956749196437        0.83721619495868
C            3.25669923535224        0.16798882699375        0.19444825310326
N            3.13855046087255        0.83166215255151       -1.11096410725120
C            2.90477037642956        0.18353320068974       -2.33250888098541
C            2.83492116590161       -1.17239516641501       -2.66235019530241
C            2.59269797093129       -1.52137246812997       -3.96734409356130
C            2.41614033943309       -0.54691694663948       -4.95617249808075
C            2.47760970732752        0.79025341248196       -4.65016723735285
C            2.72349699304494        1.16310837816337       -3.32670727672623
C            2.83546592594081        2.44973101676674       -2.68422815570293
C            2.73882991067708        3.75004303672615       -3.17464174901634
C            2.89048705703380        4.81884067168168       -2.30282448167146
C            2.80287687074168        6.21434963084702       -2.77019227360634
C            2.06594388104247        6.53366905535728       -3.89108011972463
C            2.01027774131649        7.84928311092210       -4.30131163597967
C            1.22238795025832        8.22709266657931       -5.48922402053569
C            1.58063852116500        9.38104943659977       -6.22020844218984
C            0.88949899155779        9.78124226976679       -7.33239491592807
C           -0.21231990465691        9.02648936904876       -7.74629168275437
C           -0.59073751582142        7.87904382419028       -7.02339492168631
C            0.12667529174242        7.48028240633414       -5.89801360014841
C           -1.74202277028103        7.31579602815016       -7.68488114185996
C           -2.51764041019008        6.18405808702893       -7.42283319194231
C           -3.56138556190750        5.89264699071731       -8.26597288563282
C           -3.84599122164424        6.70625010849572       -9.36853293878209
C           -3.09364940332296        7.82132238976215       -9.64064725076710
C           -2.02950604891177        8.13606621676383       -8.79170227570997
N           -1.09963424067184        9.18559466272568       -8.81709458253582
C           -0.98677866714532       10.19454765498889       -9.87909470084579
C           -0.14191353065067        9.70210667844209      -11.03334758475484
N            2.66713966267978        8.79639018201113       -3.63759728509987
C            3.34722260357897        8.40367179770106       -2.55648155279067
O            4.01989147642226        9.41120140760739       -1.86250960728601
C            4.70936983132316        8.91528259388921       -0.74581719863355
N            3.44119989054779        7.15905803218966       -2.08604175975821
C            3.14881401110309        4.56392808595341       -0.93810642946194
C            3.24188006377728        3.29178628239357       -0.44093042173310
C            3.08700686700795        2.21479372448165       -1.31890102068178
H            1.98405886012658       -0.54147355461021        1.80885075755301
H            1.26673583041812       -0.66606233018816        0.20220246194436
H            1.38693759633389        0.89935623840925        0.98456191403820
H            3.78400418085006       -0.78048292752538        0.05023710542174
H            3.90471427851940        0.77797505328429        0.83197133024243
H            2.96994661817674       -1.91813268389469       -1.89967259775155
H            2.53780390554844       -2.56338258999464       -4.23681982560489
H            2.22879386721948       -0.85185239852182       -5.97255049962678
H            2.34105584947314        1.54534717656381       -5.40404451798988
H            2.57064233397893        3.91038798501461       -4.22270676900710
H            1.54436952205372        5.77040701789374       -4.43603776173532
H            2.42724312669353        9.95137519496383       -5.88061444227188
H            1.17758775680531       10.65836452735655       -7.88344030512277
H           -0.18913985943745        6.61424876217116       -5.34771652488134
H           -2.28964570187324        5.56185832568722       -6.57544351985067
H           -4.16990908329059        5.02342341510837       -8.07820669914845
H           -4.67030332251269        6.45139539993378      -10.01420318271423
H           -3.30773312212024        8.44728226168357      -10.48824560282791
H           -0.56797079335315       11.10723654367183       -9.44300190143527
H           -1.99687351284747       10.45615578958347      -10.21086416522289
H            0.86761873957897        9.45692389081869      -10.69982352143188
H           -0.05984805571287       10.44371021910390      -11.83067867729237
H           -0.56507536526440        8.79374578038269      -11.46485059264256
H            5.20653519003900        9.74080330596575       -0.23349784228130
H            5.45516892943982        8.18799316209443       -1.07097157278428
H            4.00429324109509        8.43655364090296       -0.06411989775200
H            3.27201932678429        5.40728658057100       -0.28151122645465
H            3.43432091225024        3.11142489769389        0.60138574502320
