68
 energy: -14.038173029990 gnorm: 0.000683999967 xtb: 6.5.0 (97a52f5)
C            0.93240364799173       -0.56433666016211        1.34354857248348
C            1.86956186952870       -0.06695325160633        0.26574222923175
N            2.66377326929607        1.08237548208092        0.71968742348392
C            3.89307717864832        1.00722014669757        1.38982643731481
C            4.68853670587157       -0.08482768982014        1.74485443077772
C            5.86157969474340        0.14603738147289        2.41802717464315
C            6.26219589768666        1.44500349295720        2.74859130020105
C            5.49186794897241        2.53000334320202        2.41101088510936
C            4.29426578369192        2.31303875516191        1.72627458871506
C            3.26577229737525        3.20970890472321        1.25792485170139
C            3.12823932553128        4.59360509520288        1.33445241580923
C            1.99288763567905        5.19473497510115        0.80995694906754
C            1.79282394954570        6.65339728478865        0.86931016036219
C            2.86878569962608        7.51246260006828        0.96445532528167
C            2.64562026875817        8.87309599557502        1.02056170284117
C            3.76458899880148        9.82686561300556        1.10865727493297
C            3.51181622189068       11.13578446730447        1.57408485600881
C            4.49835646832155       12.07996524948694        1.66636105903403
C            5.79563568981328       11.73479134453145        1.27632361568634
C            6.06711375964110       10.43511669643462        0.80787595331578
C            5.05305358962733        9.48385874335162        0.72407715449821
C            7.47061682633271       10.38281896411155        0.47820116123128
C            8.28140252243310        9.36524131194703       -0.02916159403365
C            9.61082030898220        9.63018227329139       -0.24637573054250
C           10.14935824413123       10.89095714659138        0.03217998120967
C            9.36696152344713       11.90187240176313        0.53045298856258
C            8.01147372935993       11.65130378243691        0.75614891227687
N            6.98213429513181       12.47532349584734        1.23213774207285
C            7.14991667412850       13.85720330726424        1.70059652187190
C            7.62636888408113       13.91051389168605        3.13513583665185
N            1.39946964277869        9.35158856331960        0.99779639052731
C            0.44862255880505        8.44520658492748        0.89604993193788
S           -1.24460320431719        9.10611262012743        0.85047115593875
C           -0.95000607053078       10.82820271395923        1.36764261575974
O           -1.74289469985245        9.16990660760949       -0.57409755887764
O           -2.09704066009204        8.49981784193250        1.94062936663652
N            0.54768408382341        7.13371680389146        0.82095763258741
C            0.99514581225481        4.38680309974579        0.22206318949498
C            1.11826563718955        3.02636202383555        0.13510154143673
C            2.26743696095894        2.42234445931096        0.65341271842442
H            0.34096860256721       -1.41990010820080        1.01168033992524
H            0.24082247318796        0.22133137670649        1.65039675552105
H            1.48793828530322       -0.86655029228625        2.23223055486245
H            1.31854251240854        0.23172046478013       -0.63175182412368
H            2.55987102522844       -0.85411964740475       -0.05379761742346
H            4.37550929689114       -1.08210200095770        1.49318317235673
H            6.48529402658829       -0.68661842267098        2.69870757608165
H            7.18858531199565        1.59461726598711        3.27804939588441
H            5.79033962715045        3.53137050914237        2.66618159436364
H            3.88762532980840        5.17471914010295        1.82211327847701
H            3.86844075115741        7.12429507455910        0.99171383204602
H            2.50472448248274       11.38288177991148        1.86039642677673
H            4.29106884373035       13.07177723007457        2.02585268930293
H            5.27605207072852        8.50812693379134        0.33686599630329
H            7.85998221489560        8.39849368026860       -0.24064087070067
H           10.25012915163360        8.85614281736736       -0.63755625320165
H           11.19631567445322       11.06989038378411       -0.14940721169858
H            9.77631766026291       12.87282928801827        0.74401239488192
H            6.19545622352295       14.37932205884203        1.58092770426791
H            7.85373341554292       14.36067153549967        1.03002352615968
H            6.92050621512345       13.40819671440443        3.79783186293691
H            7.74742044031540       14.93559757626201        3.49067221165782
H            8.58547420592709       13.40286105495439        3.24539655224254
H           -0.29233709309102       11.32029617115326        0.65868053984641
H           -0.48908953022444       10.84655705023973        2.34981911676263
H           -1.89140761034589       11.36602394248957        1.40902725489268
H            0.11664726029215        4.87193962838257       -0.16545383568726
H            0.35050016235618        2.42289293160586       -0.31483232634343
