66
 energy: -13.566797193207 gnorm: 0.000649563902 xtb: 6.5.0 (97a52f5)
C            1.27591980990355       -0.20458310008966        1.93838030073172
C            1.84312197969126       -0.05248313206833        0.54441593890410
N            2.53758929250440        1.23088280896316        0.37491597451213
C            3.88171697914507        1.47566314934677        0.69253164031045
C            4.89940084918966        0.62332563195978        1.12866171844948
C            6.14186182394780        1.15218878407273        1.37390502185017
C            6.39551997870991        2.51685251557684        1.19520551136101
C            5.40738135381292        3.37012695155202        0.76963412754972
C            4.13699095585023        2.84835384118952        0.51460101473320
C            2.90250139484684        3.46049390606688        0.08705983421071
C            2.57001933030024        4.77902351166327       -0.21597625632653
C            1.26705521680783        5.08630182963132       -0.58318216125637
C            0.85125613329442        6.46157989669902       -0.90883025288236
C            1.78089817285306        7.43225475151358       -1.21893210013884
C            1.35100223936350        8.71127747942814       -1.50639975594583
C            2.31548193665063        9.77596585507638       -1.83555607317875
C            1.91777855694242       11.12519417216892       -1.70704127720086
C            2.76451985131460       12.16483633704618       -1.98339525096565
C            4.06267389748043       11.87610427053806       -2.41429249369724
C            4.47512345372924       10.53769930184794       -2.55911995945217
C            3.60228717020607        9.49068032175572       -2.27126068286020
C            5.84916303779771       10.55851069279354       -2.99849097526382
C            6.75727815341437        9.53976974022350       -3.29610596111867
C            8.02804953040934        9.88490855685105       -3.68547502096464
C            8.41311127531206       11.22693768157347       -3.78204241768019
C            7.53324148538047       12.23989073734905       -3.49324538997354
C            6.23402548274236       11.90862878651660       -3.09984553168729
N            5.13422733379799       12.70875314236238       -2.75649747130869
C            5.15304003773509       14.17165145477991       -2.62257156378851
C            5.57420080130381       14.60315662083503       -1.23528799204362
N            0.05099122812495        9.01189785673961       -1.47262583337196
C           -0.76956512723500        8.01252514524710       -1.17141846131555
S           -2.52222962562559        8.41748074046251       -1.12550787750918
C           -2.89909157152357        7.56469486216529        0.36633850376860
N           -0.45085993272203        6.75356524252637       -0.89901467608456
C            0.30444629269522        4.05347396730690       -0.62614808390925
C            0.61626969282676        2.75297115232901       -0.33340092177991
C            1.93192515436782        2.44247188742548        0.02281343978912
H            0.76557842172755       -1.16038381379262        2.07392824073302
H            0.56033201667493        0.58953582810944        2.15655017127542
H            2.06539207679252       -0.13811565653194        2.68844760196444
H            1.05528924035138       -0.11866894755068       -0.21293588347112
H            2.54907561427560       -0.85700585614943        0.31434736026351
H            4.69997150847864       -0.42408091211812        1.26765526218690
H            6.93644570463862        0.50683505784241        1.71087491383257
H            7.38093179535810        2.90312048258206        1.39759133453584
H            5.59300135266527        4.42105892608647        0.63464523716523
H            3.32090277446349        5.54162638895547       -0.13653257373484
H            2.82720094251545        7.19771102568763       -1.23121544721249
H            0.91389478461664       11.32551743058887       -1.37666107337839
H            2.44976236228847       13.18720538853517       -1.87470138706195
H            3.93183954968910        8.47835174335766       -2.40726452687839
H            6.45403438121711        8.51076122431583       -3.21654185279184
H            8.74103101072672        9.11165338142635       -3.91994159682461
H            9.41790349911815       11.46730815545342       -4.08867785547881
H            7.82646456450399       13.27189887545702       -3.56490073436788
H            4.15598462227793       14.55084434893715       -2.86904193679168
H            5.82546573740048       14.57770241620815       -3.38513620858747
H            4.89587176905874       14.20309406169126       -0.48017272109928
H            5.58932352912510       15.68971953282141       -1.12782827435736
H            6.57185264766297       14.23058268190576       -0.99829089811405
H           -3.95087946541723        7.68740862435595        0.61409147839878
H           -2.29744274002054        7.95593049770538        1.18330020959314
H           -2.68571716888646        6.50463705115999        0.25230353346732
H           -0.70294524821828        4.31520023162285       -0.89824993498948
H           -0.12721890845998        1.97703447989135       -0.36971102272067
