40
 energy: -8.420158653436 gnorm: 0.000857908483 xtb: 6.5.0 (97a52f5)
C           -0.08074421300935       -1.86167647511079       -2.54905332637304
C            0.89603942257237       -1.30208788962036       -2.07244330877970
C            2.03345426087928       -0.71853769115804       -1.49211054865388
C            2.03092098686658        0.61552420583913       -1.10934782898780
C            3.13475905239122        1.18530994445789       -0.51308335802209
C            4.26727000058270        0.42608945635717       -0.28754649658214
C            4.29538049915224       -0.89747922495718       -0.65453608515264
C            3.18773530003898       -1.50030334556341       -1.25799447813286
O            3.19937996758290       -2.85373099349064       -1.65022394165994
C            3.68190827060643       -3.76751979278797       -0.65049476880659
C            2.66314185690987       -4.80765166120032       -0.30304523013896
C            3.00676312356369       -5.96241371099633        0.37934649999037
C            2.03938692499240       -6.89186418995834        0.70370721658435
C            0.72129106738030       -6.67492762609061        0.35643225028174
C            0.35760651889926       -5.51925209670631       -0.31386313665356
C            1.33894152380952       -4.60283017471176       -0.63736089122386
C           -1.05817454123156       -5.25468578461719       -0.72104744436012
O           -1.28498165597544       -3.86267623238496       -0.99957502472254
C           -1.78208704841606       -3.58805663485128       -2.28918295106266
C           -2.86251449626578       -4.29090641152541       -2.83015991031928
C           -3.33931679384480       -3.99652665421378       -4.08450747388443
C           -2.75298587371953       -2.99356178523863       -4.83302208366634
C           -1.68691047432397       -2.28564994980632       -4.32202695264486
C           -1.18648334293887       -2.56156947853807       -3.05730186830395
H            1.14565559865679        1.20339241338789       -1.28219985732701
H            3.11643100100195        2.22321203024331       -0.22380672120865
H            5.13155138830658        0.87576795205011        0.17335325322065
H            5.18613655205077       -1.48063280673377       -0.50285564441982
H            3.95337220082255       -3.20847569365993        0.25065133760515
H            4.59363751837699       -4.23409638407801       -1.03801472464168
H            4.03444158623290       -6.12688598281116        0.65447182118056
H            2.31404636354719       -7.79089412512756        1.23068040112757
H           -0.03438166129139       -7.40009867786276        0.60531821943934
H            1.06434994870388       -3.70397807639857       -1.15921506749234
H           -1.75112997260179       -5.55274031668493        0.07275177808131
H           -1.29967182530483       -5.84529606931241       -1.61054460398902
H           -3.33405905439048       -5.05455736021665       -2.23775547683777
H           -4.17596619811199       -4.54571690478383       -4.48448980299040
H           -3.12968225452127       -2.76538473146565       -5.81652269620321
H           -1.22433152798256       -1.50776106966861       -4.90522107427626
