114
 energy: -23.045160732161 gnorm: 0.000696404701 xtb: 6.5.0 (97a52f5)
C            0.70066301129580       -0.84364160808724        0.81128683469928
C            2.06718319463024       -0.27980701973421        0.49155650056018
N            3.14224129143031       -1.08415441015805        1.08754593963937
C            3.73172294546863       -2.21379677238542        0.50131579142993
C            3.55021809791473       -2.80752369694405       -0.74973332284449
C            4.27782051685124       -3.93048060446006       -1.05830337533699
C            5.18438147721160       -4.47839800196849       -0.14452866853238
C            5.37359486307714       -3.91034935633478        1.09168139393217
C            4.64159750861326       -2.76730291928994        1.42224394665070
C            4.59348717891308       -1.95337296980340        2.61259441774670
C            5.26605175077681       -2.03383319481995        3.82874890333179
C            5.00463738979397       -1.09581067201576        4.82554643542177
C            5.71159779290666       -1.19508890607965        6.08189137345249
C            5.52700010884941       -0.39409888782867        7.15551088174449
C            6.23893293136658       -0.49154686588085        8.40325800736057
C            5.94058118256599        0.39138739693583        9.44251498056582
C            6.62199945319909        0.36649138710826       10.64586627209312
C            6.29557076264218        1.39377264632815       11.62055261786222
C            7.19811930024885        2.09573487194187       12.34633238207731
C            6.88862784488529        3.10935290498921       13.32621731540401
C            5.55756332210406        3.42547242241513       13.69507716468877
C            5.26908253742179        4.38013631095608       14.63274292482124
C            6.31393860777413        5.07464032220387       15.25883779369737
C            7.64428183202778        4.76489637122710       14.90124993971426
C            7.92962247174730        3.79320928977579       13.94668773501284
C            8.51290170340659        5.60519229822700       15.68236820153354
C            9.90343280752353        5.72724768912681       15.74026719890126
C           10.44815984733026        6.64294425567183       16.60684592971391
C            9.63252272806518        7.43973586222402       17.41667500195001
C            8.26446107772013        7.33084604676652       17.37062106041586
C            7.69165047140633        6.40431011799807       16.49509096795084
N            6.34901748215544        6.08302325909256       16.24034285955161
C            5.25469960059703        6.77966962962797       16.95081690790366
C            3.84976612307941        6.33083643226019       16.61862743639857
N            7.56889891289228       -0.64546254137814       10.87700363056533
C            8.24045000988258       -0.66551341332755       12.20606791134022
C            8.52211390785985       -2.02332180106802       12.84392121195943
C            8.75518854447282       -1.96518371204464       14.33696504947019
S            9.17921487117074       -3.64060014243264       14.96619504629435
O            9.92865831731250       -4.29220298952260       13.85095856277939
O            9.99826234410979       -3.32818712918560       16.16869883990380
O            7.84162927689018       -4.23043441133376       15.25394638331248
C            7.89548900269254       -1.54469637143301        9.84615679552016
C            8.88110875870724       -2.60048902789019        9.98780607068308
C            9.74930758383197       -2.97191429248327        9.01809361357420
C           10.69250317778824       -4.06089827470013        9.12370162261023
C           10.91674587506875       -4.75444936386837       10.34001656091821
C           11.80687414311763       -5.78987511007656       10.43305086623788
C           12.52905544900968       -6.18815944044462        9.29942064734515
C           12.32276820855246       -5.49614615396676        8.08618401542361
C           11.41677902530678       -4.44333415890834        7.99866098897041
C           13.17800315019452       -6.09161220163528        7.09384949595308
C           13.38436429801891       -5.81545140420659        5.73994643312479
C           14.28541634642074       -6.58167809309587        5.04201405659418
C           14.98427766172587       -7.61859666800833        5.66832988038178
C           14.79201840728520       -7.90147922246947        6.99821133435557
C           13.88033170419415       -7.13154056528025        7.72559192633701
N           13.48804623398802       -7.19300293502474        9.07220798584538
C           14.03008159374658       -8.23251567712140        9.97407802980702
C           13.55779775593931       -8.18465932592592       11.40953735707612
C            7.24335602202873       -1.43465319832123        8.62997119118699
C            4.05331290736130       -0.07422849096067        4.56982031247419
C            3.38737998340998        0.01487219718123        3.37705674536882
C            3.65362856093178       -0.92984546803925        2.38071022122652
H           -0.10321877327786       -0.25018646970025        0.37112521856355
H            0.53735681896017       -0.87963994175803        1.88932340142353
H            0.60447064729483       -1.86468601142390        0.43919671690527
H            2.16642847239245        0.74807899768441        0.85520471739276
H            2.23342447315941       -0.23319825384476       -0.58954919015070
H            2.85037470522311       -2.38544320406958       -1.44838846308425
H            4.14880817742969       -4.39895972621552       -2.02011961228186
H            5.74108338828104       -5.36048319712587       -0.41513837434727
H            6.06618525039666       -4.32773465939746        1.80092699497383
H            5.97975714732537       -2.81972721664764        3.99373566294970
H            6.43903422862287       -1.98239645085650        6.14997553783494
H            4.78892643044482        0.38377794650826        7.09351591833210
H            5.19017094950944        1.14559682358739        9.28545050264465
H            5.25807043188622        1.67053939367432       11.69383497308527
H            8.24129252807849        1.91590094705140       12.16012865442582
H            4.74738630967418        2.89262088929421       13.23124768464445
H            4.24723201492359        4.58736960208905       14.88565175741790
H            8.95078469435180        3.57471493554386       13.69452767730982
H           10.52311381420317        5.11047021046150       15.11383039294945
H           11.51878171249299        6.75002458171567       16.66451659135825
H           10.08653182515304        8.15032038267161       18.08759872412529
H            7.63519933510893        7.94237643099665       17.99204336064257
H            5.36835582115541        7.84950647133036       16.74456858637429
H            5.44376896726452        6.66086042965634       18.02329737542428
H            3.62440506731701        6.49124635696977       15.56363593965883
H            3.10191547569126        6.88113483870070       17.19371732894865
H            3.71210383452339        5.27216344643288       16.84197462557203
H            7.59483006822105       -0.12012840659301       12.89903162733201
H            9.16532453636959       -0.08685470242552       12.12888704182546
H            9.41878195142222       -2.46262426806025       12.39303051819944
H            7.69243838394862       -2.70928768087708       12.63138239461179
H            7.87065667875111       -1.60867439722490       14.86444615574825
H            9.57216551030118       -1.28716720134796       14.58380485753890
H            8.82673272296759       -3.22596144280126       10.85699752107609
H            9.75070497592604       -2.41440580266630        8.09852977245904
H           10.39248139967578       -4.44932980220342       11.22804812131872
H           11.95327487554346       -6.28246918982264       11.37478046014567
H           11.27428869253338       -3.93670814061659        7.06215787036765
H           12.84164277439992       -5.01689614248390        5.26600788158090
H           14.45671532615131       -6.38259196538837        3.99701129140324
H           15.68496109989750       -8.20459411503434        5.09663965754245
H           15.32767136845225       -8.69849201937531        7.48187214314965
H           15.12182132919489       -8.15150885759804        9.93484863873292
H           13.78658895688173       -9.20304059898224        9.52818490984024
H           13.80988526131959       -7.23092750577092       11.87486101756056
H           14.01761584286750       -8.96970153541801       12.01379901347908
H           12.47785338623707       -8.32304259769077       11.47364306834835
H            7.49367902066144       -2.13328776320846        7.85446260963918
H            3.85093842345282        0.65640666924594        5.33172460194106
H            2.66838241842221        0.79377567102228        3.19628358702644
