74
 energy: -15.124624871457 gnorm: 0.000506950905 xtb: 6.5.0 (97a52f5)
C            0.63246632304022       -0.77448451379117        0.26213051932046
C            2.11686013754077       -0.68665375277610       -0.01417508576860
N            2.91528250144084       -1.09232430907587        1.15062991401117
C            3.33311237952030       -2.40086894037394        1.43621545396072
C            3.19078643115559       -3.59389350665116        0.72322539286301
C            3.70096207265048       -4.74858096853324        1.26198985818002
C            4.35118988194579       -4.74290881542550        2.50100104696922
C            4.49847629220029       -3.58015196479011        3.21707490102579
C            3.98671816111089       -2.39560356027789        2.68290565549596
C            3.95167138922853       -1.03972103651784        3.17810209219923
C            4.41834911272509       -0.45976874034452        4.35488136808402
C            4.20407599006789        0.89418084700336        4.58476888732566
C            4.69092531086371        1.48905630941511        5.81669007040797
C            4.35323494322766        2.69702355014484        6.29229446167323
C            4.88690300667356        3.21926056772881        7.53133141297866
C            4.44659248898002        4.43727587391921        8.00676282217128
C            4.96713835283841        4.91957150818395        9.19025852466347
C            4.50184309938395        6.18706010724758        9.71015192941629
C            4.98454303957243        6.72629589176041       10.83959039480689
C            4.55924675623327        7.97970113896211       11.43548227042062
C            3.45544782067862        8.71185013816342       10.93287700296587
C            3.04787586399428        9.88920830788573       11.50000736744348
C            3.74470800933612       10.38314803701063       12.60715249905155
C            4.84189887686904        9.66791005696457       13.12508324677656
C            5.24493908524743        8.46989835875542       12.54080872755035
C            5.32902572490901       10.40321253454475       14.26820672350585
C            6.36814353317724       10.16211363124811       15.16955194107702
C            6.57234882883812       11.05543307251351       16.19267840948602
C            5.75775504985002       12.18388373566715       16.33742136468319
C            4.73134549134107       12.43509157112526       15.46151545133367
C            4.51160280869409       11.54024102404906       14.41133210020306
N            3.55565696834164       11.53042121825466       13.38435854052734
C            2.42947826859139       12.46624886896374       13.26274339988679
C            1.23274746439968       12.01295068014014       14.06931264119347
N            5.89170873187885        4.22662254732017        9.86302204380178
C            6.25183418892637        3.06657534781149        9.32497422725815
S            7.50042967143327        2.13186869165323       10.22259152696790
C            8.56099060223934        1.83031776859359        8.85155857212161
N            5.80236003210333        2.51468587689498        8.20407127326265
C            3.52019112970211        1.65745529399279        3.60678725595960
C            3.06172285407137        1.10036635599394        2.44341006784758
C            3.27496980741420       -0.26304579970727        2.21747234104104
H            0.03411990022949       -0.47837209284007       -0.60200557143364
H            0.35320425515861       -0.13064049144099        1.09743308752910
H            0.34694295731787       -1.79191874464552        0.53329507764446
H            2.40853755927720        0.33178479864146       -0.29083957499592
H            2.39959906413108       -1.31977855466323       -0.86140043213797
H            2.68623747663816       -3.59533183291812       -0.22630323322295
H            3.59824461313690       -5.67645707696784        0.72356940704942
H            4.73958638423657       -5.66576526634602        2.89937249014710
H            4.99217170158867       -3.56847050253998        4.17275183526365
H            4.92969612923371       -1.06198829381641        5.08306217597161
H            5.37138327702367        0.89957546465553        6.40452684882759
H            3.64835871573109        3.30551046164228        5.75691347812045
H            3.70656415792376        4.99913719271960        7.46617623747774
H            3.74160273597904        6.70196294826535        9.15322816803916
H            5.75815918542420        6.18452359647066       11.35299814500910
H            2.91351055007568        8.32630149046297       10.08821165906383
H            2.20453678986836       10.43253374744165       11.11287353913897
H            6.08133273925009        7.93130295557753       12.94666766820694
H            6.98671731728581        9.28959377344895       15.05444090214018
H            7.37027471869992       10.88457609818403       16.89649085742800
H            5.93989904439410       12.86610905077259       17.15155305761706
H            4.10116826067581       13.29940321233277       15.57135252426083
H            2.17760195657497       12.56283168482660       12.20167534752595
H            2.76992854754437       13.45663210647537       13.58177708814077
H            0.89418167338723       11.02856435732097       13.74278029513052
H            0.39040328007816       12.70220947509104       13.98100335114436
H            1.48585674150589       11.92908670581384       15.12721377910791
H            9.42790657906152        1.25411076545136        9.16659679354946
H            8.90047867722775        2.77240569229998        8.42771086750082
H            8.02921040355111        1.27327259643936        8.08395184901337
H            3.36989050418000        2.70844712965095        3.77736381263155
H            2.54371562115553        1.68976454849869        1.70815985494228
