54
 energy: -10.532902411670 gnorm: 0.000743286406 xtb: 6.5.0 (97a52f5)
C            1.25318265205613        0.22665399481791        0.08471972129778
C            2.64025138440207       -0.37266409289948        0.01495541161879
N            2.98707789285106       -0.78309065243734       -1.35205694860266
C            2.69324131475480       -2.02721971306058       -1.92779955757279
C            2.13101668704469       -3.18560059874131       -1.38961933004281
C            1.95859938977660       -4.27704160001956       -2.20771837434365
C            2.33366332536182       -4.23762231392299       -3.55380999522231
C            2.88730297360616       -3.10595229992026       -4.10200145443940
C            3.07235329203694       -1.98719665469184       -3.28445519608694
C            3.60126719442403       -0.67250068324780       -3.54353602496870
C            4.10892849173361       -0.07889415240115       -4.69606999615096
C            4.54277483409111        1.25034475184775       -4.65769017349037
C            5.06875555148426        1.84493994175450       -5.85127877514225
C            5.39978790311046        3.16546339894301       -5.98668721562829
C            5.93792873562782        3.77991038078715       -7.15140499273460
C            5.80375578721180        3.13294155548669       -8.39222419781462
C            6.21788536775201        3.71852532840629       -9.55503199040572
C            6.79640629746782        4.98481982857458       -9.52499762288637
C            6.96838605150645        5.61179182769296       -8.33176588773434
N            6.58001418769582        5.04203970556012       -7.13978006613249
C            7.09876630495836        5.78438615436229       -5.94934568509045
C            6.74757690914518        5.29334051068080       -4.55295770095820
C            7.43748035142705        6.04103691820112       -3.43396337135718
S            6.92039410153281        5.33745182933736       -1.81410464110246
O            5.57969952051860        4.73656604972060       -2.06987539406724
O            7.99807590852574        4.35193327527747       -1.53199531864893
O            6.91475866485982        6.53741583065856       -0.93824136931336
C            4.46527309539674        1.95628285568621       -3.42456355563858
C            3.96751272821785        1.37867728743200       -2.28778579763496
C            3.52769482790741        0.05291716582656       -2.33701720023709
H            0.98505326102869        0.52764196826034        1.09918367170630
H            0.50439008158138       -0.48669450000300       -0.26160936083609
H            1.17716531610039        1.10593002617702       -0.55596720291733
H            2.72744472708916       -1.24702945584594        0.66746634075631
H            3.39718439799785        0.33811028575866        0.36122558696229
H            1.84323151481595       -3.21297455644177       -0.35426032598835
H            1.52806365851328       -5.17905726716214       -1.80535424665721
H            2.18518960357642       -5.10864234543711       -4.17026807388756
H            3.17522899594935       -3.06785276278689       -5.13740723939118
H            4.15641458787996       -0.64066787219498       -5.61016081684122
H            5.23442123860345        1.18472732977676       -6.68191003234301
H            5.14922936421485        3.79854549007167       -5.16289241417396
H            5.31855718197963        2.17466719332004       -8.43781612184688
H            6.08706248508676        3.21014260097704      -10.49607996913117
H            7.11889750296072        5.45388153086839      -10.43999416069359
H            7.44784384028933        6.57478625001965       -8.29703496352843
H            6.77809298627891        6.82565596343573       -6.05252060241720
H            8.18869602808404        5.80248583637952       -6.04965543249118
H            7.00037400106986        4.22956935587548       -4.46526215058411
H            5.66574216309230        5.38395488230361       -4.39772979763832
H            7.18713235256325        7.10154540324404       -3.45040721147389
H            8.52140916094760        5.96368075406963       -3.51519381115822
H            4.83948767678677        2.96201049580987       -3.35943540345781
H            3.92165614702062        1.92449756382033       -1.36267356142935
