45
 energy: -9.440310570411 gnorm: 0.000888583052 xtb: 6.5.0 (97a52f5)
C            0.58409957377375        0.14019051721016       -0.51162093500297
C            1.79384123327616       -0.20129846556625        0.32903061507654
N            2.53432861876672       -1.34356978515540       -0.22223722230781
C            2.25049499353020       -2.69257166375570        0.03470095247665
C            1.32167338314341       -3.29725470372154        0.88432070191512
C            1.26624260895924       -4.66722468607064        0.93105383294715
C            2.11759406842834       -5.45176985028292        0.14742183886922
C            3.03646071809364       -4.87499928857658       -0.69422483664166
C            3.10754824113078       -3.48252616490651       -0.75290785453760
C            3.93206813124328       -2.58151433962774       -1.52194922460389
C            4.93710896471940       -2.80200260070196       -2.45773279397313
C            5.56009049236605       -1.72061442260116       -3.06976973458165
C            6.65029835294514       -1.97980866346814       -4.00354952740546
C            7.11609407925230       -1.22205811454689       -5.00445565890766
C            6.68433542824832        0.05716990488447       -5.53971883920930
O            5.73469616164786        0.71154366735881       -5.15923526059515
C            7.54805845065223        0.50267528456597       -6.65604523642039
C            7.40153018869491        1.69114288634707       -7.35744170336255
C            8.27912016849310        1.98566156901536       -8.38021767723757
C            9.29680608160705        1.10632188011427       -8.70619704155757
C            9.44303057521836       -0.07821819062432       -8.00888145098691
C            8.56611089958127       -0.36479370096807       -6.99263518651398
S            8.52936369252096       -1.81718659687587       -5.93904244150933
O            9.75197516057138       -1.84153173340963       -5.05074714491360
O            8.13829614144531       -3.03541720306889       -6.74309685117800
C            5.15947730623584       -0.41402766936045       -2.70870334547358
C            4.17485995024341       -0.17969915678924       -1.78863709246589
C            3.54787766988275       -1.27097804552280       -1.18033442694317
H            0.02992011042754        0.99031252109901       -0.10979145250585
H           -0.10018539449088       -0.70714540963914       -0.57021857902044
H            0.87819566649665        0.38448252889916       -1.53309794423356
H            1.50699844875744       -0.44447823647944        1.35710527193781
H            2.48025714749900        0.64840745576275        0.40034887175513
H            0.66743160994257       -2.69124978961263        1.48479408404131
H            0.55495735032819       -5.14791864959898        1.58232638583307
H            2.04940709437825       -6.52556855007164        0.20473450871219
H            3.69238506446376       -5.47257229392947       -1.30175303403576
H            5.22517762882957       -3.80670435334592       -2.70594669632544
H            7.15184793550434       -2.92480533669592       -3.86303090074652
H            6.60486013959440        2.36414053334908       -7.09201927298779
H            8.17099112474763        2.90652053738119       -8.92924198190208
H            9.97824982681685        1.34499247836315       -9.50605787370665
H           10.22954123967408       -0.77323604165474       -8.24937772052437
H            5.64901307581875        0.41883316043100       -3.17955987928958
H            3.87924059652983        0.82138878184784       -1.53124024195085
