67
 energy: -14.889997471407 gnorm: 0.000522013721 xtb: 6.5.0 (97a52f5)
C            1.24867251285437        0.35709635272710       -0.52140532829112
C            2.61454887620121       -0.12963808956474       -0.09147760667400
N            3.07411269797855       -1.25800275516604       -0.91202845276063
C            2.78708523673273       -2.60854406921735       -0.67053421644589
C            2.11415888292380       -3.23733102174771        0.37987844775774
C            1.97795822200938       -4.60228705781697        0.35140230904913
C            2.49787057846267       -5.35881365167790       -0.70437997920649
C            3.15880660313680       -4.75776492400119       -1.74691289164820
C            3.30733428815562       -3.36903667669822       -1.73424768478355
C            3.91899801808979       -2.44706971843749       -2.66012229090922
C            4.56777920755921       -2.63341930745452       -3.88083745375115
C            5.04606119017239       -1.53293532919287       -4.56987318571899
C            5.70421358091497       -1.69567448298738       -5.80426590427760
C            6.27712823614281       -1.82743847144453       -6.87575826454139
C            6.94228881228528       -1.97045582301124       -8.11048998800039
C            7.32459498827210       -0.84242380617030       -8.80045528551007
C            7.97504129235488       -0.98734805286826      -10.00479665486551
C            8.36745354962358        0.16537195347346      -10.71506651642479
C            8.70175011466627        1.17204255763884      -11.32214304028405
C            9.07762039769007        2.34311184257683      -12.00825422838517
C            8.66755287634773        3.60465603107943      -11.53360550852082
C            9.01122006808297        4.76745293393035      -12.17198993949473
C            9.79466935454501        4.71012934131687      -13.33189004885970
C           10.20875872986448        3.44918118791153      -13.80970035500476
C            9.85101759214978        2.27280510732896      -13.15121255834296
C           10.99158599408046        3.66807002315588      -14.99702046755266
C           11.64258287557364        2.79429994596619      -15.87108937345943
C           12.32206903809554        3.31959699394545      -16.94199481766537
C           12.36539914468292        4.70077219944283      -17.15861585924805
C           11.73125183510279        5.57139905676967      -16.30869668190499
C           11.03415682133650        5.05498463499355      -15.21254831220499
N           10.30527796544138        5.69515439958990      -14.19911232298808
C           10.17322176925621        7.16810860165380      -14.17451798622459
C            9.34681046398218        7.74739156709981      -13.04888862541964
N            8.23402041475900       -2.19338098223798      -10.50032583390979
C            7.82766189708942       -3.22639623095999       -9.76353323010981
C            8.10063710528162       -4.51253665689152      -10.28310282623217
N            8.32546868131015       -5.57051683561200      -10.70904778150751
N            7.19405949566081       -3.18375046498358       -8.59220923729394
C            4.86774613516185       -0.24238839693654       -4.02826355591385
C            4.23250082250198       -0.04267258913323       -2.83082096960081
C            3.75226352534055       -1.15318966535645       -2.13162286171061
H            0.90269047053109        1.19856513693796        0.08209398668398
H            0.50820681479360       -0.43967789183277       -0.43932247169879
H            1.26039073788725        0.67611428721438       -1.56445436515341
H            2.61036526302578       -0.44740195908241        0.95604632278694
H            3.35982653521421        0.66920933203921       -0.16031563554759
H            1.71273688771700       -2.65250046878308        1.18781502254248
H            1.46097560089671       -5.10117178996301        1.15456783664596
H            2.37495192043261       -6.42926754974679       -0.69885047147730
H            3.55765447450114       -5.33276444371198       -2.56372118470436
H            4.69245449277453       -3.62213625587251       -4.28249052424583
H            7.11796681456265        0.13625759590789       -8.40554016894587
H            8.06628441134599        3.64141315662216      -10.64123342733952
H            8.67970840110488        5.70936125442731      -11.77976528308490
H           10.17443176273345        1.32065673250010      -13.52976560877655
H           11.60472345229974        1.73353327824562      -15.69725673586530
H           12.82979359010159        2.65998673982123      -17.62622523616578
H           12.90600959722399        5.08606661392462      -18.00745690441505
H           11.76319006206730        6.63353413510538      -16.47296997482725
H            9.75384446512363        7.46678958133810      -15.14143177570958
H           11.18805865749795        7.57970567287198      -14.14795990796063
H            8.32355976763385        7.37110518891399      -13.07820233613571
H            9.29065051824542        8.83652743084397      -13.10737018273977
H            9.77667736372173        7.50049016012335      -12.07746323295328
H            5.24564789798125        0.60022093615186       -4.58154618771867
H            4.09880014874155        0.94485345497035       -2.42735418432142
