81
 energy: -16.745362745966 gnorm: 0.000800191909 xtb: 6.5.0 (97a52f5)
C            1.59415579857678        0.51231329240699        0.34356518522653
C            2.99976898923176       -0.01937848233743        0.17264252400472
N            3.35101912537975       -0.98541905261054        1.22231636698654
C            3.09874062126585       -2.36429873692223        1.17938294560356
C            2.56182106994026       -3.17535348635938        0.17623773866339
C            2.43009733223346       -4.52025957474640        0.41627903174753
C            2.82127085834021       -5.07901081329781        1.63844086800143
C            3.34848325842311       -4.29748704760205        2.63683021766178
C            3.48993843162905       -2.92609530911146        2.40952724173471
C            3.98619066824015       -1.85012918879553        3.23217082993432
C            4.49681782347149       -1.81966958324234        4.53037884428069
C            4.89456694781499       -0.61081085654109        5.07408310152929
C            5.40906306028388       -0.55168814775668        6.38384150698127
C            5.84737614765947       -0.48046781694469        7.52289030178462
C            6.34026019077619       -0.37902298255139        8.84008010818494
C            6.55110801849240        0.87279235389505        9.37584199172569
C            7.02758610554320        0.97216196736614       10.66480870671225
C            7.24433323275771        2.25202917396426       11.21502038452864
C            7.42984776642031        3.36261028760054       11.69110426664045
C            7.64307520337886        4.64260441789934       12.23841161303471
C            7.23589548249271        5.79478049770691       11.53601446336715
C            7.42523450820849        7.05606078993595       12.03816808549652
C            8.04158116856465        7.21477565543119       13.28656964005732
C            8.45150265996238        6.06373517690665       13.99216767734337
C            8.25259927783415        4.78532964170222       13.47041206480761
C            9.04869621825008        6.49756495367840       15.22693315462452
C            9.61655205266987        5.79828398486252       16.29527832661315
C           10.11227425568905        6.51127996296229       17.35865675653371
C           10.05270077634737        7.90919183224291       17.37740553187975
C            9.49820251882945        8.60934656369750       16.33519920151308
C            8.98812562068542        7.90079047062869       15.24305598345302
N            8.37499152644862        8.34399610617334       14.06075795812901
C            8.15854922726721        9.78554442195400       13.81046503303217
C            7.51018183481841       10.14556946355140       12.49283068666991
N            7.28099477534171       -0.11412134131279       11.38599896353080
C            7.05334089495272       -1.28598332818139       10.78557118863612
N            7.32947414233535       -2.44670777239833       11.54104845192755
C            7.99322416776055       -2.36512352771097       12.85228287822674
C            9.42157978770416       -2.91623284736860       12.77439487991014
C            9.43067083826546       -4.33072716359263       12.16712510070188
C            8.71374157952524       -4.35769048073155       10.80519837670034
C            7.29792014810284       -3.78236461485650       10.92390597132408
N            6.59303221595969       -1.47580825539812        9.54543405599232
C            4.77616763323240        0.56881672084487        4.30780996033915
C            4.27790818377944        0.55494427896866        3.03117755597685
C            3.87930956207624       -0.66546245552425        2.47885046865158
H            1.32818077126240        1.23141996227475       -0.43401917611489
H            1.48015088604250        1.00760288422235        1.30897580379187
H            0.86481994834263       -0.29843908738893        0.31220478950778
H            3.73466507703379        0.79187974235774        0.19402415736052
H            3.12219313651313       -0.50909227871101       -0.79884614291082
H            2.26044131397046       -2.74208670743392       -0.76059742661429
H            2.01803266065424       -5.15812788731260       -0.34839477202710
H            2.70547647932009       -6.13851964984941        1.79750122767018
H            3.64885688747548       -4.71890425466297        3.57988703709865
H            4.57732851707755       -2.72592666591956        5.10209188464303
H            6.34780178171274        1.75658951362454        8.79779334483160
H            6.76268200994140        5.66576689437843       10.57748680561630
H            7.10335835156595        7.90927967920819       11.47279430178857
H            8.57034242028890        3.91987084546764       14.02244918841905
H            9.65749780282690        4.72358747195464       16.27234383975080
H           10.55291744699772        5.98816665180090       18.19138693169056
H           10.44926513323687        8.44360786773833       18.22506770922539
H            9.45098286002011        9.68357649328964       16.34723198455674
H            9.13491292764442       10.27519692976527       13.89524729745173
H            7.55977323070838       10.17008481530362       14.64339418283321
H            8.10706817212693        9.79182475892647       11.65109011558624
H            7.39925265804622       11.22612139389692       12.37732229584227
H            6.51307412336306        9.71060124739829       12.41280990897906
H            7.39840331921020       -2.93219545051060       13.57520568471902
H            7.98179705103128       -1.32289060632044       13.18791454266978
H            9.89369752626979       -2.91338730295794       13.76661162669403
H           10.03160492014417       -2.24970443622385       12.15309114313798
H            8.92953508841781       -5.02341269329333       12.85441051670835
H           10.45924885625918       -4.70593896867815       12.07194855370076
H            8.68669027366994       -5.37735470187764       10.39662248745329
H            9.28435644117014       -3.76266652185665       10.08203559205035
H            6.66609355716979       -4.43121572553196       11.53856214408132
H            6.81064349897874       -3.70684377371880        9.94621900400702
H            5.08838676570594        1.49924345280709        4.75043242166027
H            4.18961639880195        1.45909695959028        2.45589480358783
