72
 energy: -15.363715113615 gnorm: 0.000641416341 xtb: 6.5.0 (97a52f5)
C            1.33402285953179       -0.55030545425151       -0.41579530129897
C            2.56720133748148       -0.01096885652567        0.27441724908361
N            2.94236031284398        1.31428482419542       -0.23599329097623
C            3.80698755439865        1.55860434663038       -1.31200678614961
C            4.56815128248881        0.69455386898788       -2.10293291987604
C            5.33589487452437        1.22602679041539       -3.10813150544454
C            5.36211255897836        2.60423843487692       -3.34642748557783
C            4.61779991557885        3.46824869454410       -2.58232678563028
C            3.83073183263166        2.94452349557193       -1.55446130905241
C            2.93807076646770        3.56047321559820       -0.60368333104727
C            2.56172975180215        4.88670045405508       -0.39299975903291
C            1.64850219798504        5.18188091398937        0.60349406606928
C            1.25323019575678        6.51365766028522        0.83301490548566
C            0.90447391065187        7.66725408699605        1.03589707301489
C            0.49392786742065        8.99448719294059        1.27258742237374
C           -0.62475001000566        9.22697587435432        2.04244969177269
C           -1.02261432611615       10.52596983708670        2.27100982549715
C           -2.16226034298066       10.77106784698775        3.06289535297255
C           -3.14446191217379       10.98966932469265        3.75644114131604
C           -4.26908909629883       11.24365435164492        4.56475781877643
C           -5.05896577050833       10.17870724082894        5.04091458041969
C           -6.15907561386144       10.38818997931599        5.83072626223286
C           -6.51718821827074       11.69708974816535        6.17923477388377
C           -5.72794636889509       12.76552316538657        5.70502903798876
C           -4.61062518607798       12.53919128116384        4.90200683734598
C           -6.30519891505345       13.98754216579503        6.19761728267824
C           -5.94640043580948       15.32831346940950        6.04160110654254
C           -6.71644200907653       16.28989063632479        6.64681212321682
C           -7.83847247001700       15.94022867039673        7.40504419331968
C           -8.20326083253484       14.62759614475014        7.56690923419391
C           -7.43118076133366       13.63403943478630        6.95809492967251
N           -7.56499332594885       12.23754973867142        6.94931175371694
C           -8.67893058637197       11.57766851918225        7.66425184299407
C           -8.72468156102010       10.06879207017390        7.58372289389084
N           -0.33831586511729       11.54670842120843        1.75495734375821
C            0.71410780682683       11.20824083559610        1.03590796658352
S            1.64862539225447       12.60270193156206        0.33698178473340
C            0.38335110969446       13.91212423783071        0.39214113692550
O            2.74242891014679       13.01616821803871        1.29299894072105
O            1.94014314795927       12.40576934965276       -1.13208650391451
N            1.18610834681016       10.00949217022719        0.75478470239310
C            1.11281029182501        4.13845579106390        1.38761804348227
C            1.47360711929713        2.83104044585600        1.19345837911378
C            2.39873626623137        2.53099923658973        0.19006699561204
H            1.05344538447025       -1.53803715645910       -0.04495607083385
H            1.49501348873868       -0.63028812967830       -1.49170184903727
H            0.48272175776376        0.11582916243092       -0.26877814927240
H            3.42084817356836       -0.68335464838390        0.14253192969345
H            2.41318334546918        0.07083154691249        1.35517310034187
H            4.54348311295023       -0.36446194905056       -1.91941554552579
H            5.92889364739332        0.57188205044805       -3.72583741230076
H            5.97493098203194        2.99198055456591       -4.14333288483412
H            4.62978761956663        4.52857150311811       -2.76223538291051
H            2.97502353780399        5.67024203227458       -1.00069011982208
H           -1.17880666340003        8.40570898864192        2.46065232108378
H           -4.77786725493277        9.17577505155027        4.76910738846788
H           -6.73556154508517        9.55148266975202        6.17499065502646
H           -4.02127332596455       13.36512609587666        4.54901011887203
H           -5.08235872320554       15.58853686246762        5.45636429795986
H           -6.45424992781646       17.32913783231121        6.53679291763840
H           -8.42524224969771       16.71580388831698        7.86901543803801
H           -9.06559643938999       14.35631112360617        8.14894251415170
H           -9.60803830415266       12.00438252703652        7.27116734157876
H           -8.62129549421958       11.89758064596095        8.71030854536964
H           -8.82222085873545        9.73313634315981        6.55069575269922
H           -9.57314785177858        9.65941044742469        8.13611937157444
H           -7.82238341956918        9.62513424079602        8.00602329338487
H            0.04341329652612       14.05763495142493        1.41180437395430
H           -0.46289630556406       13.63578094962414       -0.22757254738587
H            0.80168695717497       14.84264131828266        0.02307878738318
H            0.40191489389402        4.38999640921779        2.15565485288497
H            1.05901016414522        2.04189488336381        1.79453524810738
