66
 energy: -14.374075453852 gnorm: 0.000685434124 xtb: 6.5.0 (97a52f5)
C            1.29477394514433        0.39940557815868       -0.50854615236959
C            2.69258197046954       -0.06033836082827       -0.15808740133977
N            3.12228444858705       -1.18966522743143       -0.99387359963429
C            2.83885616624407       -2.53956856864400       -0.74316059241373
C            2.18641407209146       -3.16472000751085        0.32239506134455
C            2.04731851553789       -4.52970561803425        0.30007662993830
C            2.54390811314655       -5.28992571716928       -0.76473145829982
C            3.18544823741539       -4.69268208514212       -1.82170129734442
C            3.33733443311355       -3.30410788772918       -1.81468571330731
C            3.93456703159441       -2.38566039470723       -2.75374124275102
C            4.56628984255901       -2.57784254467510       -3.98260087415469
C            5.03889684053445       -1.48085663606505       -4.68153829444186
C            5.68492860090027       -1.64825741250557       -5.92201389246222
C            6.24750889192277       -1.78305254279496       -6.99893935287444
C            6.90063393864834       -1.93637153963028       -8.23993722368628
C            7.11140697637762       -0.82569188667169       -9.02967503111742
C            7.75193571190803       -0.97727585093093      -10.24150212739013
C            7.96693404808599        0.15811078243225      -11.05064318237863
C            8.14820210489195        1.14816175512574      -11.74441543806702
C            8.33769773962266        2.30555452014900      -12.52463650844224
C            8.11778719604293        3.57961868954790      -11.96398696829333
C            8.28579030128069        4.73065208060101      -12.68825764934730
C            8.68651528955603        4.64796363340088      -14.02813864483798
C            8.91017296941171        3.37476426175649      -14.59336633717004
C            8.73610304690103        2.21059916787124      -13.84470026975751
C            9.30584051332240        3.56927529977751      -15.96347196265058
C            9.64504147680786        2.67582035086761      -16.98256985945448
C            9.98076549398632        3.17962901777548      -18.21483955764041
C            9.98496984004993        4.55856092779895      -18.45118067061533
C            9.65505125083111        5.44829162052284      -17.45996358958504
C            9.31055416480012        4.95406422170384      -16.19836824408134
N            8.93187923278075        5.61675427389856      -15.02088955950545
C            8.83043241996290        7.09186068570719      -14.97828925485955
C            8.38703497137097        7.69354385018561      -13.66413764664032
N            8.16458309026231       -2.17644665297421      -10.64778706589930
C            7.90701509880310       -3.15658898538929       -9.80831710696511
N            7.30787987163590       -3.14050105361782       -8.63683869514972
C            4.87023057858314       -0.18785124976718       -4.14161975382120
C            4.25139508622234        0.01743671190428       -2.93637628820342
C            3.77813040288318       -1.08956367356059       -2.22664277236042
H            0.96967699810661        1.23838822855707        0.11003008439839
H            0.57495846895307       -0.41003149141003       -0.37812478985632
H            1.23820589121305        0.71217745179327       -1.55228706644152
H            2.75734833749501       -0.36739843160092        0.89102207198357
H            3.41792985936885        0.75107743171078       -0.27827903039001
H            1.80379031646925       -2.57651894160855        1.13712202523874
H            1.54718510490296       -5.02598940049212        1.11549877428944
H            2.41854949226241       -6.36014721943469       -0.75479399005342
H            3.56657696538817       -5.27002683742368       -2.64539584384862
H            4.68418765502469       -3.56854497226516       -4.38150042040101
H            6.78140539288316        0.14501605705284       -8.70503864818072
H            7.80825775646755        3.63574249175428      -10.93429039252057
H            8.10988923138010        5.68252188330534      -12.22565033751268
H            8.90862155431005        1.24894885869849      -14.29192511845429
H            9.63827484082606        1.61708684745390      -16.79261232116566
H           10.24425952413136        2.50455238718917      -19.01233470626206
H           10.25186696567502        4.92661106884060      -19.42825947030810
H            9.65764602235992        6.50865359085438      -17.63860026167109
H            8.14364874481581        7.38840756302978      -15.77864408181231
H            9.81038751614047        7.48947109813686      -15.26400268144051
H            7.39834242897784        7.33125868487174      -13.37949190720899
H            8.32769625463479        8.78295705774383      -13.71637426863269
H            9.08609572450900        7.44853830497516      -12.86353752172291
H            8.24064244739461       -4.13294490415459      -10.13379186483966
H            5.24304133549087        0.65209873433863       -4.70235475598268
H            4.12514124648860        1.00682092468707       -2.53491388916726
