44
 energy: -8.948005724693 gnorm: 0.000703708464 xtb: 6.5.0 (97a52f5)
C            1.44564718319552        0.15305057539633       -0.65199987654504
C            2.49557070352171        1.11638986480972       -1.15979870089874
N            3.50651428570584        0.43940331367750       -1.98268923778806
C            4.66446614716934       -0.18728593878513       -1.50059589003185
C            5.21426539191270       -0.24880651030606       -0.21812382430975
C            6.37543101319023       -0.95807909045680       -0.03096472109355
C            7.00316130278000       -1.61133625643503       -1.09678260001243
C            6.47474644361060       -1.56505528544164       -2.36450037609915
C            5.29475498114265       -0.84846808668298       -2.57291063866062
C            4.48648126144500       -0.63569298908489       -3.75058480409167
C            4.63479882864906       -1.07765446642620       -5.06108573436421
C            3.64998618618981       -0.71597706744801       -5.97000179038578
C            2.53400327309466        0.07262591791663       -5.57452623812599
C            2.38919517885036        0.51974429007028       -4.26522443625912
C            3.37520931189957        0.16018451083184       -3.35655440350812
C            1.69780586968749        0.23788124424337       -6.74043289724716
C            0.48064469499723        0.89379581078115       -6.93473140422294
C           -0.09814607339756        0.85527006005347       -8.18054342908666
C            0.51263203789409        0.17195777802638       -9.23732397030094
C            1.70960379912623       -0.47885779710384       -9.06392115233446
C            2.31511168338355       -0.44674414073535       -7.80570776523262
N            3.51164564650166       -1.00989462685023       -7.33985358803694
C            4.38626758716187       -1.91217104177861       -8.10051570842847
C            3.98147154869441       -3.36066168752962       -7.93743931163159
H            0.68769702789103        0.65175515432096       -0.04406318510981
H            1.89828906360844       -0.63143323117992       -0.04349874627772
H            0.93580206996768       -0.33982269103235       -1.48133088094271
H            3.00617515663419        1.61779618500376       -0.33109283128492
H            2.04389996553478        1.91355251732561       -1.75943764402214
H            4.72735190188437        0.25211555187203        0.59946870668174
H            6.81052397017163       -1.01399457721406        0.95354153829563
H            7.91316433792859       -2.16091081557494       -0.91953634565564
H            6.94847481305762       -2.06969437916670       -3.18810487538501
H            5.47357365879775       -1.67978254136482       -5.35402951919648
H            1.54345724717678        1.11050761049735       -3.96914432194927
H            0.01461823837660        1.41359308273270       -6.11616167996192
H           -1.03760741204819        1.35662535405666       -8.34672995592605
H            0.03470071412807        0.15582402053218      -10.20323932102532
H            2.18050029299538       -1.00762433379262       -9.87330127014861
H            5.41697950723448       -1.74975561692671       -7.76834360388177
H            4.35972667242752       -1.61068519902148       -9.15272597324438
H            4.01571024524648       -3.65930273535892       -6.88852228130219
H            4.63244870924779       -4.03614255488647       -8.49677240005104
H            2.95840553333081       -3.52038918156487       -8.28147291091290
