42
 energy: -8.446403112013 gnorm: 0.000656174156 xtb: 6.5.0 (97a52f5)
C            1.18184973665231        0.43951567332001       -0.07055539499583
C            2.59816004703745       -0.08052479426839       -0.17960761757660
N            2.92754092905891       -1.00119817034233        0.91703471817898
C            3.42770590544323       -0.62839407584879        2.17212059388547
C            3.82519839007511        0.61183865419987        2.67864467236036
C            4.28042565188186        0.68063796417417        3.97150113242760
C            4.34769537501716       -0.46245381779653        4.77669292233451
C            3.95877194306233       -1.68902475498664        4.29799308910014
C            3.49343225548932       -1.77829539983193        2.98285456429387
C            3.00366616719544       -2.88367183239199        2.19862728987218
C            2.82694294905929       -4.24032611462107        2.48540011769856
C            2.30979741045181       -5.05767358681054        1.51479876817643
C            1.95126191331943       -4.56701760008194        0.23680163192265
C            1.40025480191911       -5.47993096178234       -0.78710652158209
C            0.52958220018428       -6.51350587657444       -0.43778868472011
C            0.02763064895207       -7.36543008174124       -1.38933234041768
C            0.37053823395003       -7.23099703316348       -2.73898148480261
O           -0.17698486147547       -8.14719351448338       -3.64365790271464
C            0.22658407335018       -7.96725779897233       -4.98360406976397
C            1.23882474608907       -6.19061806879234       -3.08773417343539
C            1.73791483985134       -5.33764931973154       -2.13433453452688
C            2.12986116481937       -3.22054647616385       -0.04438965218557
C            2.65593332849837       -2.37676558277208        0.93231374998739
H            0.93165649017230        1.12783194889203       -0.88066366713454
H            1.03248906772738        0.96647795862939        0.87329544731265
H            0.46281922991780       -0.38097937413331       -0.09553085424727
H            3.32300216673484        0.73998608487218       -0.16794247231155
H            2.75528702612810       -0.60588444315152       -1.12748594340040
H            3.76930688614391        1.48823361330090        2.05817767113933
H            4.59102830123549        1.63020609141367        4.37550707128973
H            4.70957280733527       -0.37651020685859        5.78811212269066
H            4.00411697878189       -2.57116433623776        4.91187923391755
H            3.09687039384451       -4.62216205510732        3.45411949072298
H            2.18341645931959       -6.10693311586253        1.71687841542851
H            0.24043447614431       -6.62875647902457        0.59251925144087
H           -0.64352343144115       -8.15933733005684       -1.11236297014534
H           -0.24901526919551       -8.73176279562975       -5.59943624171596
H            1.30922468458590       -8.07400344558078       -5.06549695805409
H           -0.08610555745995       -6.98497535851610       -5.34019911323013
H            1.52280195436482       -6.05650221595459       -4.11567861786558
H            2.41684146471790       -4.55310118480199       -2.42091066321924
H            1.84976802106197       -2.82205078673153       -1.00097207613747
