29
 energy: -6.186957644468 gnorm: 0.000805535573 xtb: 6.5.0 (97a52f5)
C            1.00596058337821       -0.44743952645908       -0.04886437512977
C            2.46214459992921       -0.05278970827138        0.05894773456696
N            2.89292710287900        0.76494540227084       -1.08255218462553
C            2.72952389024043        2.15125718735496       -1.19657632400452
C            2.20256640113149        3.09677158384481       -0.31345081094962
C            2.15912483590699        4.41098636250150       -0.70475042889368
C            2.62931479438231        4.80785354596614       -1.96170050868152
C            3.14910074638365        3.89311488912981       -2.84317389515025
C            3.20248443722110        2.55023243370775       -2.46087248659784
C            3.65994595898408        1.36486526113761       -3.14060283372639
C            4.21360997472788        1.15979906223816       -4.40693727021806
C            4.54190107152678       -0.11681485325880       -4.78297021862010
C            4.33158807693049       -1.21594578276047       -3.92546741166863
C            4.67535951934915       -2.51146931932406       -4.34497428407610
N            4.95454391243046       -3.58448569823960       -4.68956047411450
C            3.78605720428353       -1.01625071426441       -2.67205253604666
C            3.45004455215334        0.27746918886657       -2.27234136840847
H            0.67973698324880       -1.05352825879201        0.79858400586102
H            0.82509915980607       -1.02087306265604       -0.95890619933914
H            0.36620299378999        0.43485847157473       -0.09392856684959
H            3.10836062288456       -0.93468695116627        0.11278717513349
H            2.65195865647014        0.51544903147772        0.97527509518320
H            1.83903710834923        2.78795717726018        0.65012293437426
H            1.75484953295592        5.15144697427963       -0.03432870027445
H            2.58027770801973        5.84710375811993       -2.24202566532327
H            3.50912334425110        4.19023441166299       -3.81216760949807
H            4.37317701945198        1.99572894831270       -5.06461057085765
H            4.96954426421059       -0.29736845534352       -5.75417983338883
H            3.62038494472451       -1.84889135916985       -2.01427238867698
