48
 energy: -10.172602141994 gnorm: 0.000728618037 xtb: 6.5.0 (97a52f5)
C            0.83278639922490       -0.29311393713524        0.47651171427279
C            2.29140181219034       -0.26494185785757        0.07304143744778
N            2.96894208438974        0.96625894226346        0.52927360439870
C            2.45624611386718        2.20801905803138        0.06647435800585
C            2.11067031237335        2.41718055450821       -1.25882692190022
C            1.55907544562483        3.61964127194251       -1.66399211898261
C            1.34308571723044        4.62326655903815       -0.74732012242296
C            1.68188050961943        4.43335902004562        0.57939834430098
C            2.24278181612527        3.23888097372876        1.00438659229783
O            2.57682143285373        3.06722200427536        2.34723478241352
C            3.41979127154770        2.00071270248122        2.68084035524181
C            4.03003730186757        1.99500381009709        3.94717673116529
C            3.69836320210512        3.01505343726223        4.83612239224415
N            3.42902397998516        3.86501423077888        5.58208981353871
C            4.93609946999855        0.97817559621783        4.29108638487594
C            5.19687520286667       -0.05450145838146        3.37713813586601
O            6.06734519882860       -1.10326832553708        3.69638241880781
C            6.41976455940349       -1.27456463988279        5.03432733813366
C            7.01208783444244       -2.45869247002964        5.44585308505363
C            7.35380860465932       -2.65555449887412        6.77072552947519
C            7.10508733581071       -1.67114269748484        7.69963950106423
C            6.52400362055486       -0.47816114885085        7.30765015512868
C            6.18687793676356       -0.25676454463726        5.98174764495378
N            5.64097286608636        0.97606338660017        5.53119252683376
C            6.26678026355061        2.22659171247300        6.01038058924738
C            7.15421304868631        2.86246918974535        4.96171394560882
C            4.58052001049988       -0.05277813872188        2.11341633339044
C            4.92966039713926       -1.05826822983980        1.21414276175472
N            5.21580986705812       -1.90041493737589        0.46586887553823
C            3.66731779111199        0.95905943805700        1.77362398680291
H            0.33441261885959       -1.20952229720681        0.15443362366036
H            0.29044587059353        0.54907426955205        0.04509345444697
H            0.72977929074063       -0.21842768640931        1.55996540447449
H            2.40612240982593       -0.34196153681394       -1.01249399373679
H            2.81285907362997       -1.13120600229976        0.48752794369108
H            2.28642272367849        1.63772652603668       -1.97861575661010
H            1.29669741361341        3.76891296882082       -2.69843134530991
H            0.91109999507305        5.55874442844045       -1.06313582534661
H            1.51995750234051        5.21016567225236        1.30548311004600
H            7.19260697612849       -3.22342735520059        4.71137106015829
H            7.81025189734786       -3.58288864747342        7.07608682389894
H            7.36266028612565       -1.82891882755846        8.73406398048754
H            6.30777458283472        0.27884795762603        8.04065073199552
H            6.84879061912050        2.00667865713048        6.91003775841668
H            5.47486122723027        2.90905723836700        6.33137809117587
H            7.93629427276012        2.17096281938589        4.64589267934875
H            7.63716991015805        3.77125390005720        5.32663937640469
H            6.58203192345737        3.12712291235203        4.07195270824191
