27
 energy: -5.044091796147 gnorm: 0.000795468902 xtb: 6.5.0 (97a52f5)
C           -0.59642131027352        0.71473030528255        0.83671875843058
C            0.48279375800656        1.11228471853810        0.14441897870271
C            1.09493577152331        2.42406890446639        0.24275320255291
C            2.16406732935298        2.86670944778718       -0.48445614610470
C            2.55286104130768        4.19357101459177       -0.18551813111226
C            1.78842256017266        4.79443436088644        0.77830303819234
C            1.94929532424767        6.13967383883013        1.27893335330071
C            2.87616675038544        7.05284270870175        0.85875889736928
C            2.79564023509230        8.30282524850479        1.53070254985813
C            1.81652299846898        8.35057103291738        2.46155893247092
S            0.96261619885185        6.84953186006060        2.53664573831788
S            0.56140686856446        3.68207169382566        1.32662762230984
C            0.98744043531199       -0.00148561778294       -0.74192330628107
C            0.10305205874672       -1.23205421497069       -0.44677669524022
C           -0.97400112321653       -0.70389699812499        0.52503598004747
H           -1.11228458925069        1.34526363367798        1.53912798380200
H            2.66304589707593        2.25784928422936       -1.22238240585825
H            3.37460463775783        4.68907778486676       -0.67820136939843
H            3.59814015305710        6.84739816362031        0.08410038195127
H            3.45238595971838        9.13235286157975        1.31172214200022
H            1.58631205010183        9.19965046071951        3.07714122435602
H            2.04633303863031       -0.19954781932510       -0.53640210023100
H            0.91745240861615        0.30245328849775       -1.79325691146159
H            0.68934051390910       -2.03754495335181        0.01353454342049
H           -0.33737218461535       -1.64987828983070       -1.36119486265242
H           -1.02470565270185       -1.30396980584742        1.44271326162067
H           -1.97174112884222       -0.73552291235218        0.06868533963552
