41
 energy: -9.049517716771 gnorm: 0.000470122868 xtb: 6.5.0 (97a52f5)
C            1.48718913840363        0.97301231682038        0.10593496485226
C            2.74595417967589        0.16735248247065       -0.15380077696147
N            2.89161700444695       -0.96640375121292        0.77678664771760
C            3.58466776195366       -0.74319287068413        1.99504147916821
C            3.83749055430429        0.52638274019454        2.49488393854510
C            4.53465856496160        0.70596321167438        3.67656950026293
C            4.99418208043792       -0.38254770122422        4.37926432433497
C            4.75702151785622       -1.65613868796520        3.90158258929310
C            4.05808242596316       -1.85453270122824        2.72004084165676
O            3.85148062412948       -3.15360354444953        2.27716270645513
C            3.03628333270616       -3.35591924279571        1.16386571681026
C            2.74090479049437       -4.68840139122275        0.82790258185791
C            3.26709211177255       -5.72914784943105        1.58910919699769
N            3.70451171798803       -6.59722666917967        2.22560096229882
C            1.91702040949222       -4.98151741617765       -0.26369306229762
O            1.64865677653678       -6.31239439464708       -0.57253670652884
C            0.84140312602486       -6.57030926651564       -1.67189423511847
C            0.56498233821422       -7.87819827224337       -2.03350453822397
C           -0.23665423606399       -8.15779827422137       -3.12595600253984
C           -0.77070415404775       -7.13105542707672       -3.86788792701691
C           -0.50691772945780       -5.81754755918284       -3.52233091140335
C            0.29320380845061       -5.51679477552686       -2.43276398540229
O            0.54437223174847       -4.19093517915228       -2.10484386482770
C            1.37776435404725       -3.93096227122727       -1.01693024720831
C            1.67053845757850       -2.59749850743118       -0.68321368551848
C            1.05159434927294       -1.64461083343797       -1.48820311527500
N            0.53190932699410       -0.86269562400805       -2.17351881836177
C            2.52060365689274       -2.29481679518788        0.40226045880452
H            1.40124884447939        1.82616318024491       -0.56957864178408
H            1.45561972200765        1.35056764394014        1.12804063705257
H            0.59807364352622        0.35628758109200       -0.02760518555305
H            3.64054001139772        0.79403239029074       -0.07571741132264
H            2.76933676858980       -0.21550606326649       -1.17844808798270
H            3.48709705569880        1.39183238432464        1.96306848420767
H            4.71853942431015        1.70169039571595        4.04611114942897
H            5.53838302006978       -0.24354202105740        5.29924227706409
H            5.11081005012613       -2.51969028006124        4.43699591858830
H            0.98925506090750       -8.67233669475872       -1.44453050753723
H           -0.44184126206466       -9.18140536714370       -3.39404726940852
H           -1.39493257260709       -7.34788682059935       -4.71940380410769
H           -0.91876828721552       -5.00452807445374       -4.09414559101690
