41
 energy: -9.164511913096 gnorm: 0.000704451519 xtb: 6.5.0 (97a52f5)
C            0.52364371806294        0.21735296619935       -0.81185185257584
C            1.92310847008758       -0.16926512140562       -0.38103905910385
N            2.94672201619316        0.67017440453148       -1.03834830403032
C            2.91752804370029        2.06896873277899       -0.73731408296522
C            2.92659326268664        2.53607944042014        0.57138893714777
C            2.79562418183550        3.88927116213586        0.83976017414452
C            2.64554763184490        4.79371699918258       -0.18950141801825
C            2.63416964164690        4.34934420329257       -1.50198075067564
C            2.77501352732913        3.00873357394646       -1.76008796974878
S            2.77566545420380        2.46469029546442       -3.34027875849539
C            3.42004024702805        0.92457841425800       -3.42347211965458
C            3.84596037454101        0.45756174447806       -4.65830769450174
C            3.71098950022837        1.25922230607175       -5.79130083041404
N            3.60828058646813        1.90938683842118       -6.74906212048322
C            4.42741666527886       -0.81960536647145       -4.73844953593163
O            4.85761887799191       -1.28932234908084       -5.97517195480827
C            5.45282363170046       -2.54289553554275       -6.01688797167823
C            5.90793533983468       -3.04870034202059       -7.22310167151049
C            6.50590660136566       -4.29458664102846       -7.29003880904124
C            6.65468617937028       -5.04806862409214       -6.14974043964512
C            6.20603177035275       -4.56085295655246       -4.93496215626456
C            5.60476188329355       -3.31638335627268       -4.84664622383155
O            5.16209816179849       -2.85019983167516       -3.61590545946830
C            4.57106432702572       -1.58971702065691       -3.57159598637081
C            4.11837774345331       -1.09422470437803       -2.33543495019177
C            4.30559687960647       -1.87058617845273       -1.19398915373179
N            4.45286433194593       -2.51242227551556       -0.23665311933236
C            3.51175878830480        0.17525037433253       -2.26042112611921
H           -0.23815844938450       -0.42043720185751       -0.35913713673060
H            0.42172236698867        0.14774706071243       -1.89613734334848
H            0.30140865073946        1.24927467981003       -0.53653874781255
H            2.12122805781430       -1.21779665697605       -0.62309119933391
H            2.04454112560835       -0.08298938547011        0.70341820759727
H            3.04910162419331        1.83503078126267        1.37807834907130
H            2.80743601672126        4.23511082122250        1.86054134911549
H            2.54173338753975        5.84522107149226        0.02318287411479
H            2.52469118033239        5.03069070716941       -2.33024133112659
H            5.78551488293126       -2.44831106725203       -8.10765605433505
H            6.85496640009794       -4.67308275465305       -8.23705691753056
H            7.12073623027399       -6.01873411728800       -6.20060353245136
H            6.31617068896570       -5.14020509053887       -4.03492410992773
