39
 energy: -7.897962262395 gnorm: 0.000773627542 xtb: 6.5.0 (97a52f5)
C            1.80481469567479        0.82067094580953        3.83710773731942
C            2.74907186720027        0.71336709264926        2.66647750163040
N            4.06060575882775        0.07724365405405        2.94638815399025
C            5.08330288999910        0.25611419243428        1.97968894108150
C            5.48772310313106        1.30257145594365        1.07778037519469
C            6.47763707433408        0.91665006117284        0.24763652183960
S            6.94899297509257       -0.74497343042036        0.50867042017715
C            5.76476818775257       -0.93305677139358        1.78838858821418
C            5.22641839580679       -1.88032144319161        2.67920634282628
C            5.43775272566655       -3.32045511246739        2.74542859410156
N            6.27003749875369       -4.04974082352037        2.04820778708745
S            6.03690291849210       -5.62743314319081        2.48412959560661
N            4.83560958727073       -5.38399557135527        3.59382511102266
C            4.59190961562914       -4.09969013087444        3.63651906351245
C            3.67029480497334       -3.38485331834473        4.51054692323938
C            2.96246569245245       -3.85461181672510        5.63570758844811
S            2.53428148226298       -5.32058554247723        6.49872881418120
C            1.71882476845602       -4.40905266893457        7.74682315292414
C            1.77004294766057       -3.08023983741589        7.52387550454830
C            2.46743436243889       -2.75204312598136        6.30902302631052
N            2.88764940830744       -1.57166929208893        5.65486787371717
C            3.14844389279538       -0.35315644145673        6.45822476827557
C            4.45779180877999        0.33248503435730        6.12964551137081
C            3.55195953283495       -1.98225610923438        4.48406113237582
C            4.24061615707185       -1.23176236293215        3.44638097505449
H            0.84150116446874        1.24494858725831        3.54609689253525
H            2.21942841047965        1.46621110592910        4.61129968853215
H            1.61036667635076       -0.15966388205359        4.27224975836573
H            2.94748392218572        1.70608160494664        2.24858465103601
H            2.28801842416955        0.13688787981210        1.85652030982107
H            5.04836025959762        2.28676040453989        1.08393799582755
H            6.93449048598206        1.54144240264794       -0.49615873112733
H            1.24171121667672       -4.87281035977338        8.58921024173566
H            1.33249729647511       -2.33639604535367        8.16967538501826
H            3.14956948623768       -0.65886451603229        7.51034986945293
H            2.29574579322822        0.32388012190505        6.36205212918001
H            5.29408250969497       -0.36068582362507        6.22992854965055
H            4.65060734793259        1.18454261404046        6.78447044335088
H            4.46794485485242        0.70006041134564        5.10406281256952
