39
 energy: -7.198995395161 gnorm: 0.000989369227 xtb: 6.5.0 (97a52f5)
C            1.13865705311431        2.68167182055981       -3.10960215500139
C            2.16174969093949        1.84708505733270       -2.38399610032989
N            3.44356401527912        2.52554414691918       -2.07750636346303
C            4.55912157603802        1.70522185025915       -1.82869673479902
S            5.19660011430713        0.16888835666012       -2.15328146337611
C            6.39672106586217        0.11227055369372       -1.09768627956109
C            6.47803453682986        1.30198817324367       -0.30304746566731
C            5.32238639519711        2.18311396857324       -0.77144339610187
C            4.71393588410117        3.41117657869898       -0.38394662396545
C            4.95288466071039        4.23313602320221        0.79493819292852
N            5.87744898549728        4.08290693683969        1.70743050733183
S            5.65225276415885        5.25808172262560        2.84769895467525
N            4.32848605763186        5.98136015297893        2.17061650088936
C            4.03845743096860        5.33007858568537        1.07414513118780
C            2.99418728035638        5.62858162953917        0.10187507956578
C            2.19015216245122        6.80019520501751       -0.02122612203698
C            1.89218233332271        8.05247029877028        0.80045344412959
C            1.07094198357289        8.87382941791233       -0.03897327979254
S            0.77219432033653        8.18798094977638       -1.45274774445050
C            1.59892192720670        6.72014789655482       -1.27423407459580
N            2.04540737756540        5.59028967296790       -1.97595307470250
C            2.18389475007937        5.66641449588667       -3.44914866247771
C            3.53291367872286        5.20622096651058       -3.95828805766607
C            2.83597578130399        4.86024915275970       -1.06934261372655
C            3.61811246195054        3.64673524571626       -1.23794284817435
H            0.21952683625806        2.12461748074003       -3.30120153041519
H            1.52315246524872        3.01292319036774       -4.07397346992291
H            0.86943718028513        3.55954571156851       -2.52269951962012
H            2.40145625593591        0.95061296614753       -2.96622300413048
H            1.75756474195521        1.48481885034224       -1.43268854279894
H           13.09315311070165       -3.08246839095493        0.76011415557439
H            8.60356594062387        4.55669728906714        3.65240459833936
H            2.95682568198293        5.82575056474409        6.77081429406197
H           -0.03822775682714       14.19813610042569        4.96783433583943
H            2.01920421167576        6.71259794700139       -3.73061935186541
H            1.36138940252296        5.11872114613043       -3.91528527145498
H            4.33817005298405        5.77080181487630       -3.48660899858379
H            3.62777137472684        5.32904709888273       -5.03888834943005
H            3.70434621074257        4.15417937732762       -3.73183409345478
