43
 energy: -9.170000142471 gnorm: 0.000645791634 xtb: 6.5.0 (97a52f5)
C            2.96858359984310       -0.57880837266639        1.12255766958885
C            4.23563152851898       -1.17680638170022        0.55660529367388
N            4.20171718481751       -1.23698062081480       -0.91349049884237
N            3.07682762866459       -1.40292527203129       -1.61419197248564
C            3.43854444078930       -1.44526168059957       -2.87479707698229
C            4.83892310895210       -1.31684745007341       -3.01864105308591
C            5.71603174822149       -1.32200308539839       -4.15836861496159
C            5.24263630195706       -1.46713890788915       -5.47086656454186
C            3.89207304990765       -1.61473547616232       -5.78710486125446
N            2.76168344798335       -1.73587034080041       -6.03100620401847
C            6.22679004124949       -1.45903217021014       -6.45681959197802
C            6.15473782120383       -1.59721709118772       -7.88887200906177
C            5.08156988855600       -1.78927463416605       -8.76007344623838
C            5.33528392149303       -1.90650885200327      -10.10318457155523
C            6.64290050241959       -1.83863204721167      -10.59632380764663
C            7.71014161309236       -1.65088132021815       -9.75382940740328
C            7.46813019176031       -1.52659319659214       -8.38426191437707
N            8.32949394289898       -1.33452550184770       -7.29882287019137
C            9.79172176490862       -1.27132063005650       -7.35450856097023
C           10.41710563463321       -2.64405243277891       -7.24532915210221
C            7.58730658277668       -1.30621346141447       -6.11088957270643
N            8.05503024464684       -1.16808599797608       -4.87458101312324
C            7.11920223089338       -1.17979986222087       -3.90696000775455
C            7.56696848441520       -1.04747923654203       -2.55254186586691
C            6.71815673143343       -1.04948449147528       -1.49180532060359
C            5.33511800056964       -1.18358802990407       -1.73055230297459
H            2.98404521203532       -0.53657028758730        2.21352095114051
H            2.09750148795984       -1.16257191104555        0.82248972045853
H            2.81798540119120        0.43541619239639        0.75041745292136
H            4.39441785578506       -2.19347987717680        0.92908459472096
H            5.11064288785784       -0.59311523010402        0.85788633686990
H            2.74752199737421       -1.57594429443010       -3.69061608143329
H            4.08200327855586       -1.84546210162986       -8.36894981325585
H            4.51733773378365       -2.05550018004667      -10.78860171430324
H            6.81351686816585       -1.93602434122323      -11.65580849302592
H            8.71682383495084       -1.60127325154322      -10.12819914755357
H           10.12850814084272       -0.61806373116532       -6.54239267379676
H           10.07986052410432       -0.77442944884324       -8.28691518988360
H           10.13069307491884       -3.12593728626828       -6.30934932340531
H           11.50748491467332       -2.60393869770155       -7.28125338845268
H           10.07869684430260       -3.29165854321995       -8.05563720187059
H            8.62557130745029       -0.94624824874667       -2.39047123095856
H            7.08106899944225       -0.95392221772296       -0.48422550070450
