5
 energy: -0.561177815356 gnorm: 0.000095490672 xtb: 6.5.0 (97a52f5)
C            1.07037286794991        0.05103342860844        0.06919995898742
I            3.16683806034629        0.05136929990564        0.06919849804613
H            0.69935496392925        0.55959693858960       -0.81664275234392
H            0.69935215773340        0.56391778654666        0.95254628327037
H            0.69883195004115       -0.97020745365033        0.07169801203999
