30
 energy: -5.477244910321 gnorm: 0.000735175262 xtb: 6.5.0 (97a52f5)
C            0.31540426640386       -1.26802794458388       -0.57047362592946
C            1.32984896066175       -0.56817204578194       -0.04143092613053
C            2.69346561737037       -1.09073528185603       -0.06011150317550
C            3.14413845155932       -2.19218212993064       -0.73633661766696
C            4.52344011808921       -2.45513237619144       -0.56316381013649
C            5.16391562201741       -1.56211202234827        0.25245788697393
C            6.56247195270009       -1.58789062580975        0.61304833544349
C            7.49350516268355       -2.48635943446970        0.17028544277851
C            8.79619052721942       -2.26835550019291        0.69550300651718
C            8.86701502622590       -1.21028896302511        1.53433218577032
S            7.32343913774122       -0.44979357111008        1.70197461988228
S            4.02433756388767       -0.36430366735869        0.80735589665853
C            1.11009127813598        0.79205493622889        0.57463981893933
C           -0.36801155886126        1.14297788359292        0.82494751861940
C           -1.25131062653232        0.70234340909132       -0.34965422771791
C           -1.10818955873927       -0.80859043159537       -0.59993241655676
H            0.52882850097689       -2.23003004634922       -1.00325018397288
H            2.51349870720877       -2.80390855496787       -1.36205810194653
H            5.02434291507593       -3.28954541495845       -1.02887710290213
H            7.26318988584721       -3.28528820878187       -0.51757894688941
H            9.64428049811531       -2.88944584972325        0.44512186408831
H            9.75401647493602       -0.87130290563980        2.03566297868794
H            1.56177123220520        1.54516747308302       -0.08193924564084
H            1.67537203915611        0.84684253844100        1.51357510019681
H           -0.48511224153592        2.21939937827489        1.01436004351299
H           -0.71047466935750        0.64572911736658        1.74124823515201
H           -0.95643469434375        1.25187075592598       -1.25243085105084
H           -2.30163329207929        0.97189753225931       -0.16976316937190
H           -1.56715350452006       -1.08071763799263       -1.56070896860110
H           -1.67478379224445       -1.35710041159842        0.16361676446824
