46
 energy: -8.842014863592 gnorm: 0.000240396363 xtb: 6.5.0 (97a52f5)
C            0.85852935426932       -0.09750205051561       -0.40717220991635
N            2.28578825412172       -0.00168184812143       -0.12597643051522
N            2.89442917017089       -0.86675587315886        0.71032856675957
C            2.30835856979432       -1.57621296052026        1.64486388148343
N            0.96929992819380       -1.39677168746948        1.93690832312525
C            0.37342544135228       -2.21259052215209        2.75741366844271
N           -0.97225168624702       -2.02793401377820        2.99983779177297
C            1.03340372565165       -3.40924296270210        3.44263591716896
C            0.45943609227415       -4.73517815206876        2.83084542800937
C           -0.42462395152690       -5.40111480349957        3.90395932591562
C            0.03223810742321       -4.82701951237738        5.25852257555882
C            0.62882883849510       -3.43630316174335        4.96098726954299
C            2.54522739890899       -3.38698113862719        3.29937807908962
C            3.35274925132144       -4.26562745920283        4.00131550226945
C            4.72508744761069       -4.25848616282360        3.83728179937592
C            5.30900738896008       -3.37219123367979        2.95429097938663
C            4.52075496712977       -2.50089250888291        2.24062386156837
C            3.13379775479864       -2.49246675518040        2.40254126879018
C            3.08624420221185        0.91246575983812       -0.86803265382636
C            2.53524917004430        1.98427276410326       -1.56905798622543
C            3.34253607589903        2.84356870862024       -2.28142827288684
C            4.71101297688085        2.65268894231840       -2.30635213844647
C            5.27204331609954        1.59986755533785       -1.60953930694784
C            4.46698272848495        0.74133745685667       -0.89508164756336
H            0.49767591658167       -1.08839188125960       -0.14564920114907
H            0.66330758711273        0.06225327623149       -1.46530194277502
H            0.31335382243559        0.64051508621587        0.17652256594026
H           -1.49058353939390       -1.36959538163443        2.44630300944932
H           -1.56299108724244       -2.73864629402496        3.40079139494963
H            1.28622417516095       -5.39113937101956        2.53983518247573
H           -0.10044883026580       -4.51863468236090        1.91511092326447
H           -0.34112088090026       -6.49512845804986        3.87582193626561
H           -1.48183948037943       -5.16965029022309        3.72869245586626
H            0.78674001515681       -5.48010029343923        5.71283647162045
H           -0.79560721492476       -4.76854285015382        5.97667548934788
H            1.49539352965818       -3.21751873947157        5.59361203406537
H           -0.09849104590932       -2.64423466167856        5.16174945405347
H            2.90033457728515       -4.97108463902824        4.67625737139767
H            5.33844221546303       -4.94690877641317        4.39524405520953
H            6.37877492122734       -3.36525327197570        2.82317678965272
H            4.96482801144215       -1.80894154503817        1.54713832880981
H            1.47270166447288        2.14878586253099       -1.53801461364680
H            2.90576200004069        3.66911421802231       -2.81959855535541
H            5.33997182219863        3.32528120656850       -2.86635128169018
H            6.33931053139100        1.44987581135084       -1.62594764584704
H            4.89404676706733       -0.08155270571792       -0.35034781383282
