39
 energy: -8.114236573295 gnorm: 0.000478749405 xtb: 6.5.0 (97a52f5)
C            0.82718659116356        0.39607476570992        0.32408687987937
N            2.24953052276868        0.05948122123013        0.26518799870697
C            2.55726881512054       -1.26704563728052       -0.26463034208556
C            3.16905978190008        0.86208112910157        0.86159202094433
N            4.47025622055328        0.71521931397193        0.84559961294258
C            5.21737956930654       -0.01160757942292       -0.05914509908644
C            6.19533414511147       -0.88464973879994        0.40462050326105
C            6.94044594969136       -1.66175824996480       -0.45402975414535
C            6.76754628667227       -1.60607299329122       -1.83476948013492
C            5.80867659529038       -0.68968865983488       -2.35558519118812
C            5.60783837799095       -0.55974418658862       -3.75515705054539
C            4.69353093200184        0.35404797108647       -4.23572370014521
C            3.96488059227228        1.15658452652459       -3.37251760648796
C            4.13760769062964        1.04352587562702       -2.01942509449608
C            5.04179844749637        0.11857185161985       -1.47674557770117
C            6.36896955785984       -1.38575871566223       -4.69405581040112
O            6.20191308791822       -1.28629764334208       -5.90034401549003
C            7.33770383800192       -2.33674830847489       -4.13938346444737
C            8.06819839462020       -3.13921028329057       -5.00791741010906
C            8.98596413809103       -4.04257842470601       -4.53308234400358
C            9.19067327782856       -4.15982518932421       -3.16982211211406
C            8.47997207096953       -3.37658852641179       -2.29381253790533
C            7.53711930426272       -2.44510193474519       -2.74769662096796
H            0.30280636594741       -0.02762342254021       -0.53028577497112
H            0.69325423085040        1.47591595944671        0.30632301604365
H            0.38943564408009        0.00156026104314        1.23891477389449
H            1.72037206916141       -1.94388737177332       -0.10385909438390
H            3.42818140839697       -1.68038676149216        0.23894167572938
H            2.75748899176329       -1.20794129205185       -1.33226517117337
H            2.78616082017637        1.67114906512148        1.45931352168801
H            6.34311943190529       -0.96103273115633        1.46747177788634
H            7.67056898187661       -2.32929742562242       -0.03543609081716
H            4.55889844660724        0.43717753178643       -5.30043021728478
H            3.26039086413298        1.86933247959501       -3.76858002484969
H            3.57280662655423        1.66877776742609       -1.35251167394789
H            7.89866928290057       -3.03747237200377       -6.06614211746441
H            9.54433388025005       -4.65870994048879       -5.21861841574195
H            9.91024081046331       -4.86969661219027       -2.79585076028467
H            8.65623795741225       -3.49037571883170       -1.24016922860062
