42
 energy: -8.039816365094 gnorm: 0.000611564039 xtb: 6.5.0 (97a52f5)
C            1.14976789117221       -0.37750615611163       -0.11903377125406
N            2.58512065899906       -0.17631679729138       -0.03953581569720
C            3.14752380123932        1.07337592609275       -0.54820591417501
C            3.40015048919988       -1.22838538607138        0.38397960546151
O            2.92519733392668       -2.31698635587197        0.67749541630944
C            4.86877653009376       -1.01022565755210        0.45978995671872
C            5.72736738864954       -1.77377069449200       -0.32391896498292
C            7.08590858724679       -1.58853354738954       -0.25396950466771
C            7.63486704054250       -0.63690569075327        0.60822360024214
C            9.06547334594820       -0.44074800264601        0.69661143148478
N            9.62419759693373        0.43171095174720        1.48819293171926
C           11.00279508666317        0.40419996239646        1.38997714832695
C           11.89256861320665        1.21019307871277        2.11829684755023
C           13.24077369681333        1.07544500115946        1.92932307767034
C           13.77375204612050        0.14157294459292        1.01450954742860
N           15.16584824672515        0.01450688459603        0.83938767656862
C           16.10700438739848        0.92709745035761        1.48766782075895
C           15.73961577735031       -1.03714728423073        0.00059383634366
C           12.88940891150532       -0.65475485266364        0.29201872460037
C           11.52631790614393       -0.52484676140447        0.47983948061677
S           10.21679946061415       -1.38092923700014       -0.27087296735670
C            6.76830602963915        0.11872734594441        1.39923330494212
C            5.40954149805075       -0.06629251020271        1.32849431733331
H            0.62441303189601        0.48590820666442        0.28511501484680
H            0.87037945322634       -1.25883830971342        0.45555668548045
H            0.85073477322957       -0.52580187006499       -1.15484364358572
H            2.41940175969538        1.59039854124924       -1.17064397193649
H            4.03230447211398        0.87294158055297       -1.14992303124758
H            3.42165778978808        1.72502895708919        0.27891410009616
H            5.30941357990618       -2.51294167387186       -0.98533185087191
H            7.74591619679300       -2.18008299730097       -0.86337635906610
H           11.49744004315999        1.92270319844923        2.81998238255108
H           13.91473173621060        1.68912143694080        2.49935638181635
H           15.81509661574092        1.95891222747540        1.30349033006712
H           17.11389305030261        0.78918521081052        1.09957055416320
H           16.12259552973619        0.74494803235883        2.56027435251866
H           15.53497769810915       -0.83014307373357       -1.04797213244856
H           15.31188308747745       -2.00205079088944        0.26514354677199
H           16.81719734078291       -1.10015676412370        0.13662291808720
H           13.25270258647382       -1.37037305834060       -0.42103663061632
H            7.18479971277655        0.84829693248664        2.07121133842335
H            4.74853921840190        0.50919360204536        1.95300222901104
