27
 energy: -5.446544951718 gnorm: 0.000686241057 xtb: 6.5.0 (97a52f5)
C            1.28116091863031        0.56202682123530       -0.10769687875975
N            2.64752130037003        0.05789165756048       -0.01642806220610
C            3.22083416944899       -0.06368119412267        1.31687163465023
C            3.35599321486278       -0.41109287000758       -1.11975270322519
N            4.56537441316313       -0.95767754260870       -1.03071074849003
C            4.95663837406652       -1.31202638472220       -2.31036026057813
C            6.09500415919816       -1.90433529212961       -2.83465575167319
C            6.17342039763408       -2.12675890364463       -4.21673396589611
C            5.15831691817857       -1.77697637288469       -5.08502860311017
C            3.97877078787049       -1.16800944769490       -4.59595549334607
C            2.83463214434952       -0.73607998741464       -5.30609611238506
C            1.77837187884259       -0.15799616391129       -4.63289290460755
C            1.78203102927087        0.02749858308609       -3.24118872379187
C            2.88532661996757       -0.38389010788968       -2.51237560472746
C            3.93701226751209       -0.96486207215926       -3.21750117768580
H            0.88816066811711        0.78687962317181        0.88212035865993
H            0.63753949311470       -0.18482123094953       -0.56844198280652
H            1.25923056784185        1.47417944696174       -0.70079234052675
H            3.03845649095262        0.84196559988837        1.89271178073044
H            4.29569507585116       -0.21785919669617        1.24702301116175
H            2.77873821574106       -0.91149534443309        1.83700614809918
H            6.89937178995045       -2.18334183335343       -2.17837637557052
H            7.06153016557321       -2.58945163058321       -4.61450680979180
H            5.25057415171696       -1.96308801800788       -6.14052623481235
H            2.80218289278050       -0.86464877272491       -6.37368942561411
H            0.91632945233445        0.16333300782315       -5.19386843685655
H            0.94270244266002        0.48433762621009       -2.75015433683983
