45
 energy: -5.755015622080 gnorm: 0.000752480341 xtb: 6.5.0 (97a52f5)
C            1.05092224745704       -1.16768764086215        0.74649266954390
N            2.36950725228896       -1.43655178601398        0.19181280276604
C            2.54418149989716       -2.80346443010138       -0.22942470588548
C            2.75298406591676       -0.50710558271376       -0.90639752539748
C            2.83458194203840        0.94881216033025       -0.47268904102779
C            3.43044339132351        1.83881243613818       -1.55846913201626
N            4.72864865562186        1.42790086668060       -1.94304335287203
C            5.81904368402898        1.58932707467450       -1.12821864116836
C            5.75530734874204        2.29144608933156        0.04203932569991
C            6.81462172888893        2.44275148040111        0.81022530274063
C            7.98021131442634        1.91955106391842        0.47089636214751
C            8.10992902454776        1.23010366619650       -0.64950752266752
C            7.06116595701128        1.02859254033061       -1.48362122887430
C            7.22185752723100        0.29220201191289       -2.74397062014688
C            7.30549817874817        1.12297681929418       -3.95052492183016
C            8.39760916213746        2.02850496730809       -4.00876230177869
C            9.67574333054899        1.71929029500524       -4.03110610148109
C           10.71543356551046        2.53380357976971       -4.05176499152374
C           10.77136086428492        3.89941021654250       -4.04675759439065
C           12.03655458367139        4.52732427793341       -4.08668827573348
C            9.66470164440097        4.66700280618046       -4.00744073099588
H           -3.13424651167201       -1.63037553694974        3.17801914624382
H            0.29868634205214       -1.17660503927723       -0.01376205678018
H            1.03113341800021       -0.23769197810769        1.27340821917855
H            0.10657354412499       -4.47217988910000        3.63836092381354
H            3.56304861972395       -3.00452229089098       -0.48671112459269
H            1.90599928568795       -3.04174782899504       -1.05451603052216
H            1.10436094489307        6.14808311995407       -1.94045873657233
H            2.04912024423716       -0.62376630451195       -1.73576019058892
H            3.72925281751782       -0.82100020634073       -1.28860470067051
H            3.44898619787020        1.01359831283015        0.43231408583951
H            1.84165123106614        1.31226640090828       -0.18201758265558
H            2.79699012192913        1.81872007335510       -2.45132440410219
H            3.47825241385041        2.88481103255466       -1.23640679301899
H            7.76175969598611        5.17559656332853        8.94376441069862
H           14.32174817095221       -0.98028982546892        6.74732317060768
H           14.66366847774596       -4.20585757050493       -1.89329855416707
H           11.17554715749932       -3.46631882290464       -4.36452075380690
H            8.01409833765241       -0.43539012605422       -2.68449988590898
H            2.84643225193677       -1.65529221287292       -4.44514821478138
H            7.19568149300392        0.55431838663623       -4.85944440381267
H           13.07836830840279        3.97186915150722       -8.63393598386311
H           12.53763925925736        8.06209258651819      -10.28124754137025
H            9.17539179412689       12.96312766127542       -5.19430717439737
H            9.70694941359788        5.71559142411258       -4.00604560093219
