43
 energy: -7.755594400449 gnorm: 0.000453478610 xtb: 6.5.0 (97a52f5)
C            1.00004746574329        0.29185467020098        0.14789747696085
N            2.46205380130727        0.10822298285122       -0.02422116719448
C            2.83658802783764       -1.21159044055158       -0.54750457029687
C            3.07301789485798        1.21538731970905       -0.80599522631560
C            4.59184280362885        1.26752946451921       -0.70668624129812
C            5.19662011447422        2.47121937597182       -1.41624114620993
N            6.66998621141963        2.48504902065996       -1.33589199582864
C            7.40861910026720        1.33385074105033       -1.74195731977623
C            7.00892343820388        0.57553657412108       -2.83835721609212
C            7.73024855562628       -0.53234180780616       -3.23358737958971
C            8.86484087345628       -0.89939768632791       -2.54423683817600
C            9.27727074098583       -0.15513579508919       -1.45274147486881
C            8.56128549526269        0.95036744111192       -1.04516819663736
S            9.10990515401997        1.84051686461615        0.38415893989551
C            8.48742699194224        3.45217471573349        0.00204030325930
C            9.14318712605846        4.55760791293876        0.50095724337399
C            8.66975454751616        5.83243612301304        0.24635755311320
C            7.53506483399937        6.00623423493119       -0.51451977712620
C            7.01736119723066        7.41140300625810       -0.80444343858017
F            6.74935621460105        8.01833784255350        0.36632316060151
F            7.96947772608228        8.08767832338004       -1.47282181160921
F            5.89927850714296        7.32197304800032       -1.54958137853133
C            6.87740569391920        4.90506799716958       -1.02151642983956
C            7.33427000748527        3.61529702031378       -0.77461227389117
H            0.59911822541527       -0.49654227812968        0.78093189147907
H            0.49872076236809        0.25905300186605       -0.81699012306976
H            0.79575226483001        1.24940997060383        0.62161629983820
H            2.35517082163252       -1.99151331461556        0.03874876376193
H            3.91157658620521       -1.35941860219696       -0.48188159717119
H            2.52547683118969       -1.31215548564615       -1.58529741467725
H            2.65366646429991        2.15660866004524       -0.43864583417212
H            2.75596545528370        1.12739452816076       -1.84902588944522
H            5.02540533740387        0.35030318265568       -1.11691707740933
H            4.89101154393193        1.27691059045303        0.34754050718586
H            4.80870163987252        3.39045209157724       -0.96997484765179
H            4.90234145054359        2.49609541893435       -2.46869689334367
H            6.13579525213954        0.87156890545572       -3.39180716201133
H            7.40725332909387       -1.10852939732406       -4.08514561834530
H            9.42936733996507       -1.76406718125637       -2.85167543258377
H           10.15945630367367       -0.43756556103445       -0.90256412584286
H           10.02858669846924        4.41512162102924        1.09791588277515
H            9.17831124448865        6.69833811175126        0.63455045514370
H            6.01718992612353        5.06141678833998       -1.64525257980254
