40
 energy: -4.898633017413 gnorm: 0.000607858258 xtb: 6.5.0 (97a52f5)
C            1.54130863044762       -0.83676890120698        0.24586078143470
N            2.96108245225045       -1.15515870978321        0.20525334799954
C            3.22718394963142       -2.57134695948200        0.17986043664735
C            3.69322269678885       -0.47711908610784       -0.89970093946238
C            3.70390976852310        1.04134703016256       -0.78779775392086
C            4.55087343700532        1.69539005472002       -1.82462431738754
N            5.90568754816300        1.40258026646668       -1.73351454597691
C            6.48095640018931        0.36554170613241       -2.43258275901037
C            5.82229555699008       -0.29559221680159       -3.42651014074402
C            6.38428663308032       -1.30122772772045       -4.07372879537123
C            7.60775408010334       -1.70010239733620       -3.77982455949584
C            8.30513330187366       -1.09822832690665       -2.82649740690886
C            7.78735590631947       -0.06375106557796       -2.12920250039855
S            8.74739058628785        0.73247562878319       -0.85874438595561
C            9.06695561700057        2.19452460246766       -1.72464747787798
C            9.49653580904190        3.31338749447636       -1.19622790407223
C            9.73934837297119        4.46601110159870       -1.80402449520476
C            9.60228052131445        4.81471113310546       -3.11667275320251
C            9.93466280518757        6.13848299693276       -3.50208449879406
C            9.17228854079200        3.96842723704946       -4.03448340889790
H           -2.30540619019645       -0.75372077062307        3.08262498454506
H            1.06382586777890       -1.06098520485694       -0.68448960311827
H            1.37625231989593        0.18586598784943        0.50946231907675
H            0.78002209413026       -3.60597304695290        3.92983791540595
H            4.26719961272423       -2.77383497392211        0.32763394289656
H            2.89424339871281       -3.01443373892702       -0.73526008422710
H            1.53091561798021        4.93107958405516       -2.98383613312283
H            3.26331417060262       -0.78949861851910       -1.85594226868598
H            4.72355422505845       -0.84493126696248       -0.89354755531102
H            4.07529133007437        1.32701664565904        0.20248364454891
H            2.68223351220202        1.43418699907359       -0.84259628405486
H            4.18986450493878        1.54483840324868       -2.82704244018994
H            4.35644337649728       -4.19828303631006       -7.10017537452489
H            6.37583049749723       -7.93656900387986       -7.88264702763831
H           13.62853645652888       -7.67984304638085       -2.12347897541758
H           11.03682553120674        1.50204229894129        1.14645854767171
H           10.98052997537384        5.51705539104220        2.55587280751674
H           11.38077396816647       10.59639865395575       -3.89410416298202
H            8.79267362960905        9.47906554296455       -7.27172936510360
H            4.47171348725379        4.26844934828450       -6.04309080859739
