90
 energy: -17.186745918657 gnorm: 0.000776831068 xtb: 6.5.0 (97a52f5)
C            4.01393017830231       -4.46992045519762       -0.60231806364759
N            3.98558121862317       -3.00208629318460       -0.63886780007607
C            2.64780167303874       -2.43460933593810       -0.93525681525715
C            4.60488460010644       -2.44104804402266        0.58923463454461
C            4.92001468500433       -0.96113444631714        0.48457935657127
N            5.49862134031602       -0.40710918199817        1.72757990381991
C            4.65988215335391       -0.48488182529967        2.94012201411289
C            3.19361127995826       -0.27814824306378        2.68791069738565
C            2.78499142831630        0.91277344427277        2.06801607679093
C            3.72097265111916        1.90545981238214        1.65937792884459
C            3.32292448300249        3.07136484790774        1.09627113004395
C            1.95695213811758        3.33420526700680        0.90301006206571
C            1.03013815637606        2.40953122428788        1.25055697839768
C            1.40323814347638        1.15660095572062        1.81657754184341
C            0.44801996704463        0.17861419982301        2.12401895197832
C           -0.97915411604233        0.43904765168854        1.75044950713703
N           -1.62023940634275        1.49864860877801        2.54824976122021
C           -1.31949508101801        1.49107858656904        3.99329658638436
C           -2.49240561479957        0.98241992459604        4.81085944632863
N           -2.13850245613306        0.68345112413308        6.22176184948117
C           -1.70623711427900        1.87291063154477        6.99288916433849
C           -3.20006544202122       -0.09808848737963        6.86756570333805
C           -2.59395891539530        2.35401194737639        2.00420721515922
C           -2.90769934933217        3.56523732899891        2.63486645597378
C           -3.82409420396572        4.43050836508525        2.09611491559722
C           -4.46785353614263        4.12196839002858        0.90925949107298
N           -5.44182877501776        5.04551570755333        0.33539731742191
O           -5.65049385157629        6.12434283637961        0.91157908755121
O           -6.02716587091422        4.71939759645115       -0.70891387269637
C           -4.18836024278038        2.92834165654807        0.27904241317896
C           -3.27537755793896        2.04508046900692        0.81118324348564
N           -3.10391287296778        0.75519424719163        0.14069989433453
O           -2.50754169743932        0.72923601774638       -0.94765319033257
O           -3.56115289973538       -0.26356617775319        0.68340313908623
C            0.84336434699352       -0.99870318684327        2.78183811390174
C           -0.10401026424479       -1.98066351403523        3.19681699951806
C            0.27753404963090       -3.10762799454986        3.84279240287363
C            1.63109372707911       -3.33419144871276        4.12866177944127
C            2.57026780050894       -2.42900187470992        3.76324274814951
C            2.22723350518898       -1.22666123795748        3.07458826736964
C            6.84884903182864       -0.01584777632646        1.81262373325278
C            7.56312872196988       -0.18225647879880        3.00664136876626
C            8.89115108094522        0.14687723928880        3.08931473221588
C            9.55770837682509        0.65850597032282        1.98780570944802
N           10.97358240262021        1.00263191162675        2.07516348926780
O           11.58233117906427        0.75841764352266        3.12870627332906
O           11.51928332873007        1.52802785031004        1.09206854109093
C            8.86986756125391        0.84859532611302        0.80814023846748
C            7.53305136399861        0.53157856946147        0.71146515451572
N            6.83382360912364        0.86165257977060       -0.52959272030814
O            7.20591900409006        0.31541698465501       -1.58066580640994
O            5.89615067680281        1.67440484967555       -0.48919311162561
H            3.61020221827719       -4.87243740015083       -1.52886171964400
H            3.41982723020340       -4.84050435921249        0.23065158476590
H            5.03705371002764       -4.82348818250393       -0.49426560527357
H            2.23129085911649       -2.91222663963412       -1.81909299139152
H            2.72110446427408       -1.36841205705441       -1.13237869051615
H            1.97308475780151       -2.59645836473920       -0.09748081944799
H            5.52601676633754       -2.99132215588449        0.80086832375263
H            3.93358763731406       -2.63322375210904        1.42894757643157
H            4.02562871142653       -0.38498800278568        0.24114438903882
H            5.61466515259522       -0.79575822135771       -0.34137731089795
H            5.00137458509588        0.27867698321405        3.64392734873741
H            4.86617627365184       -1.44440169661407        3.41079865467985
H            4.77087414128063        1.69638341226043        1.75189641714211
H            4.05608163144119        3.79575701135787        0.78110379381713
H            1.65072292119627        4.27475765977362        0.47540604519450
H           -0.01415714349515        2.63409257550099        1.13313715546020
H           -1.59719291147602       -0.45631485590582        1.81216290174724
H           -1.01252680730600        0.73342714932740        0.69846421502186
H           -1.01592687429588        2.49389601349560        4.30056112805943
H           -0.45019290130759        0.85529000321709        4.17572577966221
H           -2.86926311174297        0.06377902878098        4.35250915833815
H           -3.32142643602181        1.69461732098489        4.79044120103761
H           -0.82530143767942        2.31895856699904        6.53866804751534
H           -1.45255239405910        1.58116794519761        8.00940780904208
H           -2.50354009712791        2.61189075758782        7.02705382676949
H           -3.38590456089884       -1.01375379977815        6.31024773679992
H           -4.11985692037477        0.48090216618189        6.91702153903052
H           -2.89927999313907       -0.36910621710716        7.87723839212117
H           -2.40388979782736        3.83349675359698        3.54545815753598
H           -4.05412204353622        5.36357608235957        2.58156820354496
H           -4.70021629703444        2.68099576310820       -0.63431976998939
H           -1.15091497078112       -1.82202579025934        3.01839299655158
H           -0.45919069626234       -3.83201522012113        4.14947627169488
H            1.91929322043498       -4.23191515158829        4.65082822398882
H            3.59324740178289       -2.63011415595597        4.01903020458349
H            7.06853005025717       -0.60930047355678        3.86070363501133
H            9.43894485841050        0.00567434574741        4.00530811368421
H            9.38309420905091        1.26036319403992       -0.04296056218584
