78
 energy: -16.350272206837 gnorm: 0.000595237924 xtb: 6.5.0 (97a52f5)
C            0.85793282847039        1.37258268063132        0.08695930484693
C            1.48684106426406        0.17143332809262        0.05426073861159
C            2.93593672784764        0.06047742942186        0.23535488750199
C            3.66365058849512        1.03447396148850        0.93330550857583
C            5.02078730573751        0.92229018334540        1.10155090622755
C            5.72255196669374       -0.16278437597112        0.57562793571270
N            7.13962198665637       -0.27289334341027        0.74453596573916
C            7.76082905737571        0.19733170518127        1.95198279291113
C            8.99768871345125        0.83696406593497        1.91557337196849
C            9.59454287521614        1.28023511994710        3.07467447238278
C            8.96805535049584        1.09295976898038        4.29174599173005
C            7.74086670448982        0.46071829329353        4.34488213163861
C            7.14212573477816        0.01683298542228        3.18703200743224
C            7.95075511353603       -0.83373895057328       -0.30044233835479
C            9.06214813134372       -1.61724917235421        0.00183378470338
C            9.84659947941369       -2.14148037610983       -1.00131527022509
C            9.53649249681691       -1.89390143904614       -2.32463396899838
C            8.43733294937067       -1.11923872563996       -2.64123622300303
C            7.65179530580663       -0.59386729463932       -1.63972232817932
C            5.00501285904962       -1.13678878120376       -0.11922131356626
C            3.64656715730780       -1.03179544518304       -0.28121559306144
C            0.67082983660844       -1.06542120629446       -0.21728857432961
C           -0.81052276582977       -0.93367813734868        0.19824511992727
C           -1.38869443696003        0.43460481609481       -0.05217619311346
C           -2.83364470086652        0.59153582588119       -0.23232499996215
C           -3.37113049726158        1.69477373176961       -0.90990412157258
C           -4.72608926081498        1.83803305190056       -1.07150550983335
C           -5.61444932326088        0.89212319763181       -0.55922921146304
N           -7.02787174947697        1.04932099153105       -0.72077244141504
C           -7.55475251742229        1.65020138066066       -1.91505741429634
C           -8.65280785941960        2.50542325396122       -1.85918067525756
C           -9.16150009366699        3.07253462079566       -3.00629682415099
C           -8.58358880806028        2.79670003229984       -4.23056691735229
C           -7.49362044026416        1.95100088576569       -4.30292266950717
C           -6.98356784723420        1.38255566414856       -3.15714134155139
C           -7.92654970154895        0.62623134262520        0.31736062705234
C           -9.16198203793762        0.06348020250878        0.00513635141328
C          -10.02675284601062       -0.33157543189787        1.00134740656603
C           -9.67510089710518       -0.17209325406078        2.32778978438073
C           -8.45372819913839        0.38499331317660        2.65425045809842
C           -7.58754782026375        0.78075922749776        1.65965120547563
C           -5.08698720431626       -0.20994220022451        0.11415407986886
C           -3.73196683146346       -0.36036195154326        0.26956118816290
C           -0.55279653298472        1.50259666380700       -0.06504989308424
H            1.44355487633899        2.26840898019906        0.19580074126394
H            3.14481081972818        1.87020059520829        1.36885044361554
H            5.56554410471469        1.68034433311610        1.63679107469068
H            9.47766854686143        0.98659544019894        0.96420669989178
H           10.55167213424883        1.77412473057058        3.03218845138228
H            9.43631151612514        1.43939722819035        5.19868246195086
H            7.25198275142751        0.31302468051390        5.29412336241833
H            6.19098285025721       -0.48505302049640        3.22357011972009
H            9.29579455054451       -1.81192180871761        1.03400087013123
H           10.70403341144094       -2.74576471839773       -0.75342756076576
H           10.15172763473806       -2.30350029042965       -3.10919415242826
H            8.19578311373744       -0.92357463200802       -3.67333416582479
H            6.80177533049969        0.02033584841427       -1.88065043602527
H            5.53559110066538       -1.98281951188024       -0.51987180036237
H            3.11823608522648       -1.79064006020832       -0.83160511923299
H            1.12940823773428       -1.91756958937306        0.29978451396517
H            0.73407344090907       -1.29513630690469       -1.28755756909519
H           -0.91570907873385       -1.16520037357972        1.26481972247779
H           -1.41517364226003       -1.68046626240528       -0.33138098197828
H           -2.70844427198588        2.42872764919074       -1.33345642850225
H           -5.12324519169617        2.69348653699017       -1.58944223475110
H           -9.09455866120357        2.72233808862426       -0.90225515003119
H          -10.01186312661355        3.73236169518262       -2.94876845836666
H           -8.98289707454335        3.24033971856442       -5.12806509899305
H           -7.04304341841541        1.73390304766568       -5.25777708705252
H           -6.14162706538602        0.71444206138632       -3.20871477386975
H           -9.42873379401960       -0.06341604122412       -1.02953515695542
H          -10.97975016849971       -0.76549796563944        0.74568468349491
H          -10.35302254818188       -0.48036775229628        3.10702552605714
H           -8.17946562117231        0.51217870596227        3.68887191945441
H           -6.64004704594021        1.22592784516888        1.90857317423936
H           -5.76343696473221       -0.95028951467718        0.50421476438357
H           -3.35121240491473       -1.21247405720654        0.80513506611415
H           -0.96661228881696        2.49127708201837       -0.15755961966663
