55
 energy: -10.689386606839 gnorm: 0.000548317954 xtb: 6.5.0 (97a52f5)
C            2.00269277767880        1.24829775660974       -1.76854749198341
N            3.08905839993781        0.52658564832164       -1.09390355584484
C            4.12670298156938        0.00422347736423       -2.01302385076824
C            3.64020309602381        1.34710399198016        0.01373473459968
C            4.48872647692168        0.55464156233119        0.99397950908756
N            4.95046372802540        1.36187073414522        2.13886850601963
C            4.14996117921885        1.23485184419448        3.37341541508630
C            2.67176803254028        1.31009918977241        3.13613157527068
C            2.11706809007657        2.55069018110283        2.77285142243543
C            2.92129745540808        3.70843865401140        2.56624326066677
C            2.37022838594674        4.89884868878064        2.22322425684380
C            0.97903265427630        5.01955535821170        2.05241511460475
C            0.17190949966048        3.94237057645366        2.21671129548758
C            0.71049580076662        2.67477318809928        2.57168225377954
C           -0.10076956532280        1.55630373693790        2.71506599672023
C            0.43316836888670        0.31471993923230        3.04052724120276
C           -0.40320466211411       -0.82884452535305        3.16464373347776
C            0.11753527827359       -2.04192480223677        3.47043506367958
C            1.50164782130564       -2.18909584800599        3.66785179622077
C            2.33451954844467       -1.12334777307784        3.56184224421045
C            1.84056526901369        0.17824577699097        3.25067578863694
C            6.13325177891786        2.12631504367925        2.07090760775284
C            6.71813549302295        2.68059552154826        3.21621106936028
C            7.86122702449865        3.43687453611916        3.13181647581201
C            8.46707479281183        3.66358019224398        1.90875816514238
N            9.68198498875612        4.46875959713713        1.82359332844150
O           10.17849134767901        4.91511456919261        2.87419236954204
O           10.18109241926684        4.68189024364634        0.70324658626710
C            7.91147044033864        3.11309153804404        0.76780813409667
C            6.76809752089185        2.35716317470380        0.84467290654577
H            1.57067489479147        0.62619885678612       -2.54997583796663
H            2.37781468219017        2.16602300344856       -2.21781823488354
H            1.21689448223593        1.49859528028149       -1.05817302110971
H            3.66185191747948       -0.58492402879780       -2.80073016875082
H            4.82266646527908       -0.63653024465564       -1.47745426420700
H            4.67793149921076        0.82443899175431       -2.46789223743391
H            2.79971304301372        1.79625014568598        0.54721327662341
H            4.20364930442123        2.18257997190358       -0.40871902960916
H            5.36112397290564        0.11839405247969        0.50237310511085
H            3.91537280304581       -0.29464878829149        1.37428503452110
H            4.41822971319308        2.03243359447960        4.06783578963493
H            4.43809248842618        0.31058806264930        3.87438136597123
H            3.98925500904481        3.61923061916696        2.64479845185455
H            3.00055018810880        5.75894334929971        2.06788975487016
H            0.55796894386630        5.97337383146224        1.78017778329760
H           -0.89114520468968        4.03328519944250        2.07534086982613
H           -1.16006590701143        1.65035149865039        2.55886093554604
H           -1.46234847701866       -0.71640592417671        3.00964880958467
H           -0.52745399277300       -2.90043711893427        3.56130633998693
H            1.90093213976306       -3.16202652462472        3.90361957808017
H            3.38868092171011       -1.27504791403751        3.70129143759123
H            6.29119920117997        2.48924273708137        4.18333658513391
H            8.30733219630089        3.85991944327546        4.01535957098557
H            8.39185778009238        3.28896008351596       -0.17928886695036
H            6.35233551250299        1.94151004997905       -0.05457798009160
