54
 energy: -10.544739036110 gnorm: 0.000607996028 xtb: 6.5.0 (97a52f5)
C            1.96367429612156        1.20373670680497       -1.77562480028642
N            3.05393602143595        0.46901030571744       -1.12202648917994
C            4.05114368431003       -0.09219656308070       -2.06318558998454
C            3.66030988409676        1.29569547658806       -0.04856873742773
C            4.51113261764752        0.49873941110654        0.92447633909226
N            4.99551038372211        1.32217428423930        2.04545497103208
C            4.24307024392463        1.23222291416224        3.30453367781023
C            2.76962635989073        1.44615074370620        3.13004133970773
C            2.30374870743582        2.74060972654165        2.83454844471995
C            3.18482247612347        3.84641318666085        2.66713815704100
C            2.71768666544306        5.08777466783190        2.38964233091483
C            1.33735045638867        5.31838859343650        2.25255663741653
C            0.45627555549714        4.29694085386020        2.38649454219962
C            0.90650917313346        2.97873280572173        2.67288050907869
C            0.01450820625030        1.92082765803323        2.78954911043360
C            0.45764048448259        0.63019100657018        3.05165396564527
C           -0.46308289056132       -0.44893500114272        3.15207583548813
C           -0.03227708374916       -1.71066617391098        3.39279246767991
C            1.34014871582727       -1.97275319987730        3.54562074863437
C            2.25109077108578       -0.97101669516884        3.46185557713860
C            1.85462539100253        0.37769455218545        3.21841626396007
C            6.05342599923718        2.23997951899377        1.92734256607253
C            6.77771518059720        2.32996227034393        0.73799307106522
C            7.79009965175370        3.24103678690119        0.62284976089761
C            8.06373612949041        4.04917336098692        1.70145275154269
N            9.13088521258562        5.04533750785459        1.64447767416636
O            9.35657587280546        5.73708861263633        2.65391531734295
O            9.77721803592639        5.16781435861883        0.58855044867531
C            7.30004514071099        3.89462693628936        2.84195467859345
N            6.31717043601356        3.03155701226907        2.98258401823095
H            1.48837699811112        0.57533596678426       -2.52610481509256
H            2.34656853617208        2.10009875787197       -2.25966952423420
H            1.21057186449729        1.49097032689620       -1.04445178768908
H            3.54914516984352       -0.67848794462307       -2.82981663141437
H            4.74548307807102       -0.74345977913049       -1.53815644236590
H            4.61012283083286        0.70777706511301       -2.54431500052931
H            2.85109940794148        1.78339539412765        0.50091519936181
H            4.24099306391629        2.10214093586452       -0.50380096644111
H            5.36761965367944        0.03904375344972        0.42691702944160
H            3.92769939547959       -0.33259730568818        1.32798619737935
H            4.63782943859702        1.97728852059795        3.99975400526188
H            4.46486656041605        0.27139633239289        3.76935927946185
H            4.24460972266382        3.68346904724307        2.73141072137725
H            3.40720952814620        5.90623620739193        2.26287095741597
H            0.98336879467736        6.31222359811435        2.03300769345812
H           -0.59970811927224        4.47160742036726        2.27384956741821
H           -1.03752188119100        2.10228916070466        2.66454700346557
H           -1.51352612785105       -0.24755368005061        3.03181730279809
H           -0.74067708600729       -2.51944527222825        3.46566880737362
H            1.66694539255343       -2.98305405557641        3.73008170099854
H            3.29233458867005       -1.21103724312849        3.56966264621082
H            6.54178621743518        1.68582124110218       -0.08901144543728
H            8.36739987143754        3.33791206337086       -0.28064370467761
H            7.51890132254700        4.53057786415409        3.68441661875445
