32
 energy: -5.763323877718 gnorm: 0.000604665133 xtb: 6.5.0 (97a52f5)
C            1.14973921905775       -0.44435705632984       -0.82627012696631
N            2.52572343271217       -0.16845496120563       -0.34776575020620
C            3.30828008103172       -1.37564138795991       -0.05130445915894
C            3.26580670342726        0.76014279171577       -1.24632663305749
C            4.40378837016331        1.48760614358550       -0.55320231102681
N            5.17732036396940        2.31975624066072       -1.47229616812612
C            6.33166435016289        1.97190252550401       -2.16144977514963
C            7.01386798241067        2.96706400175354       -2.87392733063735
C            8.17021285983892        2.68710886673557       -3.55347360250294
C            8.68838771215946        1.40230996492198       -3.55352725381842
N            9.92049610541145        1.10385799554779       -4.27507620116228
O           10.49383957303998        2.02198384437324       -4.87934335153576
O           10.35174649104448       -0.05833599259685       -4.25916129960954
C            8.02717882050454        0.40414377721851       -2.86964074788202
C            6.86424649442809        0.66749089350708       -2.17951098095985
N            6.19471485820382       -0.46104167003513       -1.53094723102862
O            6.46415149595568       -0.71713074169562       -0.34729427920680
O            5.38626829826032       -1.12906548441612       -2.19359735572201
H            0.63304145126254       -1.08871454806382       -0.11863817954437
H            1.17883930315235       -0.93540340991418       -1.79614013514104
H            0.59277868052554        0.48564633080528       -0.91285569182861
H            2.76142521174533       -2.01468973357529        0.63806265437334
H            4.25834783026392       -1.11373524726172        0.40691994677387
H            3.50875017424024       -1.92944686123239       -0.96626932843397
H            2.56193539151085        1.49177223688931       -1.65209612739130
H            3.64503370402838        0.19457976501444       -2.10186808073983
H            5.09092884039119        0.78151256124891       -0.08280310971506
H            4.01519366107636        2.10168995144333        0.26718308257518
H            4.79556368510803        3.25757401351698       -1.57331669626165
H            6.62013294933544        3.96848175462947       -2.87347174946300
H            8.69402568066717        3.45686653966239       -4.09454052102026
H            8.42538022490460       -0.59547310444352       -2.88309120642752
