49
 energy: -9.708334120967 gnorm: 0.000578703346 xtb: 6.5.0 (97a52f5)
C            0.95516303104742       -0.60797774279046       -0.56622659774604
N            2.36490426615027       -0.30635925240804       -0.21672737248988
C            3.13297767462323       -1.48048420840560        0.21434815667080
C            3.05589039494856        0.44673444132305       -1.29620748518561
C            4.33364944181148        1.12971298928314       -0.83963364591116
N            4.95026462458606        1.93641434440632       -1.90299059841065
C            6.30792875035574        1.97373393317947       -2.20683000882927
C            6.91568537346256        3.20953938710529       -2.43234621632081
C            8.27604487640099        3.32403088800820       -2.61461494197690
C            9.09911846912042        2.21305647976239       -2.59598269383337
C            8.52803715193466        0.92947279838039       -2.43119548750875
C            9.34980868871793       -0.22237237718251       -2.46121150202372
C            8.77301204996715       -1.46853812639551       -2.36625001093672
C            7.39679927115357       -1.60884965034585       -2.25870796005531
C            6.58872830509244       -0.50405072787327       -2.21575466242135
C            7.12677414357017        0.79154708196134       -2.26372032896837
C           10.80443079660101       -0.08901930745447       -2.59668092396774
O           11.51010520363239       -1.08311999524890       -2.57897908669476
N           11.34965516912159        1.20534489275000       -2.74016024540715
C           12.76958602699692        1.35180995450984       -2.85786973344646
C           13.51468232001148        0.49244855386156       -3.65845712319838
C           14.87633259507431        0.62817109442331       -3.77015709766691
C           15.55040966102376        1.63802141972460       -3.08011031618416
O           16.92334385556794        1.80389563130671       -3.16819911188332
C           14.80124425710427        2.50033282881033       -2.27775737136348
C           13.44067040577275        2.35729648010514       -2.17020323836314
C           10.54144816045213        2.36431967473994       -2.76813605581244
O           11.02255831125272        3.47445503270199       -2.93238711832403
H            0.46460980388530       -1.10970733460179        0.26482049388440
H            0.91231205950490       -1.25253550838500       -1.44177207514748
H            0.41588920703011        0.31311245031645       -0.77723204971737
H            2.59321369441922       -2.00743532798894        0.99847260263427
H            4.09883426052529       -1.18174989889589        0.61353669302536
H            3.28741340881851       -2.16137372380640       -0.61989771374517
H            2.36506811929930        1.20290805661239       -1.67949502711677
H            3.25326070702862       -0.22953209054760       -2.13178863750278
H            5.06358261846191        0.40373652011944       -0.47407578607259
H            4.12334958217957        1.77121628463349        0.02378883118677
H            4.42111559063706        2.79565165366638       -2.03112477270109
H            6.30414334554719        4.09437683317439       -2.41952735866485
H            8.72586684598805        4.29107826248082       -2.76094326017430
H            9.41007503213663       -2.33585491976033       -2.39392244879310
H            6.96325274520180       -2.59444089640554       -2.21624690141800
H            5.52250082462939       -0.62888966084693       -2.18940675165015
H           13.00132212039810       -0.29907856672068       -4.17622205904742
H           15.43678222007905       -0.04810368337204       -4.39016607182129
H           17.30892926451418        1.12706522034319       -3.75647070193728
H           15.31578607713993        3.28203369332781       -1.74794308893898
H           12.86609919701771        3.03555611842356       -1.56362513802489
