26
 energy: -4.676796979657 gnorm: 0.000520200826 xtb: 6.5.0 (97a52f5)
C            1.30079750628541        1.11751194760442       -0.23327782506898
N            2.24830549061418        0.03213322488210        0.03059816769822
C            2.28542571353196       -0.44892338740864        1.41274152534406
C            3.01738657847164       -0.50966242143435       -0.92529309261949
S            3.01807985511495        0.00536160432638       -2.57496715429868
C            4.23116870276317       -1.11635927081817       -3.16425295848093
C            4.76276057246614       -1.97626720344552       -2.28189878374620
C            5.77427649921547       -2.97424831317529       -2.59129874828623
C            6.21525661715483       -3.83651378278286       -1.58967573347130
C            7.16969961463579       -4.79883709779007       -1.82609466906483
I            7.75610843562529       -6.04068188022616       -0.26573598116194
C            7.72815862331342       -4.93512687119214       -3.09079257232782
C            7.32567589394344       -4.11006391120420       -4.10827937172021
I            8.14922414865164       -4.30270912290829       -5.98627804328820
C            6.34148140768872       -3.10174990939688       -3.91825330681448
O            5.98502352345446       -2.35844830246129       -4.86018371043131
S            4.12069179588133       -1.80897542523272       -0.63260921291001
H            1.51793263834541        1.96751440717929        0.41043580981470
H            0.28448006448089        0.77748876866627       -0.04477699405317
H            1.37157991373823        1.44186893074457       -1.26904072574036
H            1.63338504558226        0.14681427177200        2.04829105733801
H            3.30115605536662       -0.38529271248152        1.79743973018141
H            1.95883209226871       -1.48607653494132        1.45071883076941
H            4.52691128452373       -1.10251815176890       -4.19501536541969
H            5.79722193547495       -3.75079331485606       -0.60035387754128
H            8.47798999140264       -5.69241554165534       -3.27116699470167
