36
 energy: -6.991266056468 gnorm: 0.000327061751 xtb: 6.5.0 (97a52f5)
C            1.06821232428806        0.13981736782783        0.25771612133666
N            2.48502992045530       -0.23608912801971        0.18768516267676
C            3.06233616310248       -0.66155743177018        1.45878287942376
C            3.19537646315528       -0.40942113215255       -0.97251035352820
Se           4.84709829808174       -1.33090514309622       -1.00216394325071
C            4.70963384724653       -1.18685162410356       -2.90109865585870
C            5.67872235425631       -1.75773586857855       -3.80145917487100
C            5.51868967598120       -1.62708296752842       -5.18558778874256
C            6.43625400862354       -2.16942902057112       -6.05306399675846
C            7.53755133428499       -2.85451031916976       -5.56091127390636
Cl           8.69315294306362       -3.53393035235154       -6.65306468727295
C            7.71163116079993       -2.99327705626962       -4.19160466664095
C            6.79493498093462       -2.45227125393968       -3.32220969327403
N            3.66829777872062       -0.52550287883138       -3.29482306112871
C            2.84311650166416       -0.05404621956163       -2.27020451136249
C            1.70017514255541        0.80883333640761       -2.62520957774794
C            1.50410765374681        2.04310060039347       -2.00148456511478
C            0.45568430411347        2.85631510151787       -2.36652206119296
C           -0.40994632706442        2.46292215436412       -3.36839785032390
C           -0.21781479372395        1.25596405330997       -4.01238836760849
C            0.82976634799109        0.43943642459990       -3.65141242223416
H            0.57185885399050       -0.40801539968135        1.05658161024942
H            0.56206592674517       -0.10134292465044       -0.67412434232889
H            0.96965670424183        1.20466415589164        0.45664410485423
H            2.57178847792314       -0.15965160320677        2.29097698989642
H            4.12214610839810       -0.41548899057927        1.48698602362760
H            2.94885326358811       -1.73756316938308        1.57577197501764
H            4.66211134693892       -1.09483058965146       -5.55981197716722
H            6.31504399699576       -2.07140171784993       -7.11840508472589
H            8.57175793663130       -3.52769565759275       -3.82575143966965
H            6.92841334500657       -2.55848875959834       -2.26005716850446
H            2.19636160357930        2.35624470764176       -1.23925123628185
H            0.31231097513744        3.80326087107780       -1.87241792607276
H           -1.23049208855496        3.10102668794186       -3.65276922455562
H           -0.88794075318740        0.95434118901257       -4.80061823484864
H            0.98952422028952       -0.49827744184998       -4.15461158211144
