32
 energy: -6.368448084678 gnorm: 0.000592824555 xtb: 6.5.0 (97a52f5)
C            0.98990961365459        0.07366885764616       -0.05549387369144
N            2.45050396553380        0.07198295409878        0.09449850666077
C            3.12289172636021       -1.05409808202159       -0.56517941665998
C            3.14679278128249        1.05910231331046        0.82744376493212
C            2.81608584305290        1.32139306260455        2.19442502046588
C            1.85044184590290        0.55927759158095        2.88389712446075
C            1.54331674720560        0.81421158231366        4.18889504629202
C            2.19514005319503        1.84010999827492        4.88378864667176
C            3.15631441824710        2.58168461637564        4.26849637065111
C            3.50706361364166        2.33828811632081        2.91551205842786
C            4.52665397144414        3.05857892267597        2.29218470965637
C            4.88561784512179        2.81478802158675        0.96603435875014
C            5.91869629167715        3.55590977867226        0.33654000278770
C            6.23114791533995        3.34440030029574       -0.97110998068993
C            5.52593292489747        2.39436123045618       -1.71977804323905
C            4.53134502604705        1.65896961257683       -1.14320331319115
C            4.19219336552257        1.82066270373780        0.21595846311147
H            0.72568769405244        0.16789234106492       -1.10716803780474
H            0.55325053379729        0.91452771277064        0.48081083821758
H            0.56388900099005       -0.85203422010002        0.32725220168907
H            2.75731783419643       -1.99442514201272       -0.15623051189541
H            4.19744723564943       -1.00578609204716       -0.39852496224128
H            2.92776831577309       -1.04364587433292       -1.63587158528137
H            1.37018343643831       -0.25573482476083        2.37435891505010
H            0.79982365098983        0.21880801348573        4.69344243897340
H            1.94007405406965        2.03317985025074        5.91310792275124
H            3.66906681918489        3.36067446361714        4.80616732458145
H            5.04875714072217        3.81711746264246        2.84676605830470
H            6.45036354709960        4.29619692185991        0.90954344521047
H            7.01672915387727        3.91597298174642       -1.43795793184628
H            5.76835042770514        2.25037591731276       -2.76014589207642
H            3.97425320732497        0.95953890799401       -1.73887966903001
