47
 energy: -9.871732768329 gnorm: 0.000640970155 xtb: 6.5.0 (97a52f5)
C            1.19580251176809       -0.11253219115925       -0.52578433452314
N            2.58464421842169        0.10011101191544       -0.11957358312474
C            3.45019164094158        0.58084142406973       -1.20346527721495
C            3.11054297067224       -0.53648809781824        1.03056597527472
C            2.55918033075754       -1.72643143055305        1.47213112868182
C            3.09060476626660       -2.45663797354997        2.54617835799254
C            2.47820270850959       -3.74129579401768        2.95414585370235
C            2.34954817985083       -4.08041003720825        4.30033199626001
C            1.78062830432296       -5.27605630014557        4.67649352751398
C            1.31925393019678       -6.17855673343837        3.72265501431936
C            0.73931971246442       -7.40493288993956        4.10689075406520
C            0.23886826731380       -8.46973506557418        4.43752671206557
C           -0.34316764009856       -9.69716569788035        4.81466492665318
C           -0.27791400491579      -10.82014249903420        4.00694646651206
C           -0.86228131672656      -11.99208817459946        4.42656649412824
N           -1.50491210168295      -12.14770402447341        5.57267382224323
C           -1.56186036608075      -11.06940673304976        6.33733040879722
C           -1.01275240909968       -9.85006050658767        6.01712581544353
C            1.44595088287492       -5.84191942962770        2.37821535376990
C            2.01410399404650       -4.64657919078245        2.00071038675706
C            4.20229033011631       -1.96327623473949        3.19660863135022
C            4.78969129629378       -0.73985278617146        2.82169767291589
C            5.90869713029934       -0.22065069904395        3.51278808195865
C            6.43357873686478        0.99106123948610        3.17651027240553
C            5.86148829543352        1.74365402728772        2.14813096217016
C            4.78669850132893        1.26341334549570        1.45520762746557
C            4.23679257129523        0.00103495678289        1.74630170111002
H            0.86988879668420        0.68728934941941       -1.18828975798486
H            0.54552731816489       -0.11989774593411        0.34703329216357
H            1.09667538311588       -1.06091831492535       -1.05062742689457
H            3.18180707245062        0.09435451443267       -2.13956617534998
H            4.49278174150860        0.34915268708405       -0.99427378229226
H            3.33774382421753        1.65609964918946       -1.32898476633288
H            1.70763114126129       -2.12725557029411        0.95586803973002
H            2.68990777486356       -3.38736256594985        5.05010507016573
H            1.68498009022456       -5.52648754474001        5.71925268356328
H            0.22929360788313      -10.76357112249521        3.05893063918878
H           -0.80527065404156      -12.86191707177954        3.78920510882533
H           -2.08202435645284      -11.17733916932472        7.27742492525223
H           -1.09606934186638       -9.01255711299932        6.68857183396967
H            1.09427780870901       -6.53448996896797        1.63260730062241
H            2.11951043497133       -4.40842047200518        0.95647070995114
H            4.63174450866235       -2.52213021448158        4.00788610888628
H            6.33719911031632       -0.79431572540157        4.31650892454364
H            7.28451301030748        1.37816100212445        3.71282050181952
H            6.26844455036955        2.71188628701971        1.90629094060486
H            4.32886673720350        1.87118559437534        0.69653108085818
