47
 energy: -7.566087069789 gnorm: 0.000909710731 xtb: 6.5.0 (97a52f5)
C            0.92124186647421        1.62891469985162        0.80492653136876
N            2.00585475745421        0.69689992894740        0.49806339417025
C            2.68619892538710        0.14461547920001        1.67206281299233
C            2.50788904427822        0.54467399091654       -0.81062273113132
C            2.24927289656676        1.51759252763040       -1.76324703393766
C            2.69543360281110        1.45857614688717       -3.04793105489082
C            2.50678848891261        2.38179209375053       -4.05359787466836
C            2.12182081969959        3.67288400245193       -3.94575001789204
C            1.95146129237212        4.52453411640461       -5.01880190352727
C            2.13940651991650        4.19570053026354       -6.31499853897470
C            2.51626269821458        3.04645675999141       -6.94859474996065
C            2.84435322137113        2.03911465028049       -7.49675466081834
C            6.71693443794799        0.49405699805266       -0.80808399541141
C            7.44907876420340       -0.54714628438277       -0.61364327173384
C            7.43330992704682       -1.65168382482286       -1.33177952250271
C            8.17992990640053       -2.69073473983118       -1.11839938830869
C            7.91363891358801       -3.60793616473104       -1.99694480664932
C            8.46611849548875       -4.76178861674633       -2.07257785758587
C           10.61856715244882       -3.53550159676907       -6.42707421092240
C           11.53444202237623       -3.15520063173711       -5.63457119978509
C           13.27776496543587       -7.01355417246079       -3.29859976174300
N           13.33071884533613       -7.59559324355249       -4.45719038824051
C           12.31152158970983       -8.14045271529088       -5.16621244753960
C           11.04103732307794       -8.16845553516747       -4.77204818781924
C            4.20499266466382       -2.72649346818148       -0.98372961424790
C            3.36744034206564       -1.78541904979106       -0.56852455462149
C            3.28320881777125       -0.55951269154116       -1.16207441369962
H            0.46115882002096        1.37335102953876        1.75775484707186
H            0.15284959799013        1.57963567607587        0.03566350635800
H            1.30481217324951        2.64576432150547        0.86490942455396
H            2.75877220191679        0.90021129431012        2.45231114777494
H            3.69606986366735       -0.17028446232659        1.41705152816146
H            2.13186708051993       -0.70630323538121        2.06326163965463
H            1.67147996827700        2.37445516421347       -1.47085961842414
H            1.94599503637086        4.06131417661981       -2.95636168341663
H            1.64349624405808        5.53789814864038       -4.81714775542124
H           -1.09101317977098        6.98867383239056       -7.91460721953431
H           -1.24159012996070        2.99177781303136       -9.47389605206930
H            1.22406038592286       -1.13276835587159       -3.51983732041769
H            5.15930492279037        3.77884708190279       -4.66173055310726
H            5.64661317867471       -0.92021218882479       -5.32484234359767
H           11.34232151174867       -2.64967670138705       -4.73438935362782
H           14.11026018181508       -6.60637301779791       -2.80352556399204
H           12.55506088131954       -8.58163979451302       -6.12149777979436
H           10.25641524460437       -8.59205026171885       -5.32775342164099
H            4.28624740617075       -3.68284864874978       -0.55527516123946
H            2.68883030359282       -2.00775106482530        0.23762117868878
