36
 energy: -7.160886200053 gnorm: 0.000835731227 xtb: 6.5.0 (97a52f5)
C            1.11754384565383        0.32876129635424        0.03285289146163
N            2.53481987807549        0.01168206263964       -0.13706484385157
C            3.15745486168354       -0.57279265797593        1.05697639691386
C            3.30110084746431        0.63034182003649       -1.15547081831223
C            2.93412696402631        1.87728342544125       -1.63168951392143
C            3.69519500776442        2.58097789548578       -2.57789209709635
C            3.26913300017688        3.92413354936276       -3.03578750340434
C            3.36229511583611        4.28462892205024       -4.37963158046210
C            2.96712663206909        5.53508198940304       -4.80382988577286
C            2.47229865033655        6.45006657481115       -3.89580691834187
C            2.37220165037260        6.11105145342300       -2.56107786104963
C            2.76532604817505        4.86091831174983       -2.13384957610763
C            4.85229073466651        2.00512195810146       -3.05914061827699
C            5.26376794527346        0.72493513138777       -2.64146869417717
C            6.43244052318689        0.12400594863657       -3.16344869324219
C            6.79095948900311       -1.13784651474141       -2.79310321181043
C            5.99696496849687       -1.86009428112513       -1.89898287437868
C            4.86729122617890       -1.30201419029835       -1.37035635022469
C            4.48067494360803        0.01129662855866       -1.69858371660545
H            0.61866801441922       -0.46235721330276        0.58965581638475
H            0.63328587467147        0.41962349178380       -0.93772985243036
H            1.00105894373478        1.26441056019009        0.57655410045968
H            2.78299762884533       -0.08064586936415        1.95342953405716
H            4.23796768095835       -0.44420201147309        1.02967245206842
H            2.92381239886547       -1.63394004320622        1.12388207058135
H            2.04821842094773        2.34279554179684       -1.24292146378674
H            3.73754996066527        3.56785988402475       -5.08972229923039
H            3.04390646381139        5.79914187627154       -5.84608291195141
H            2.16556136493616        7.42849615644149       -4.22846675068231
H            1.98755602448380        6.82571396516765       -1.85166381606587
H            2.69902271576392        4.60156568016661       -1.09125136893624
H            5.45383606597580        2.54195629773189       -3.76991853214670
H            7.03271599150704        0.67566702097273       -3.86656753950676
H            7.68203117216695       -1.58731783069753       -3.20036113366948
H            6.27695793622878       -2.86629184914903       -1.63214196729901
H            4.24261100996970       -1.88540498065430       -0.71892086918647
