30
 energy: -5.850694815855 gnorm: 0.000804730924 xtb: 6.5.0 (97a52f5)
C            1.12320719915511       -0.17850719310392       -0.00804883457641
N            2.56173867267866        0.07436241067844        0.03294821625615
C            3.23035684826000        0.30168470666146       -1.24614894741157
C            3.27706657005680        0.09975199258614        1.26065355226197
C            2.72482197175643       -0.42809512224958        2.42295453030138
C            3.40656707911626       -0.41725029113057        3.62835224812742
C            2.76329503980116       -0.93954828874486        4.75753448743669
N            2.22199061582087       -1.37252329730686        5.68984592740197
C            4.70072640103915        0.14175489452960        3.69742770849564
N            5.42297354532395        0.15503500202156        4.92797941520990
C            6.16370715014500        1.33082880718139        5.37881186987117
C            5.47804685776925       -1.01278632878820        5.80449217414135
C            5.26646770439416        0.68233767974241        2.52274857835321
C            6.55784685447110        1.22404577982472        2.50281125523090
N            7.62862952252958        1.67361271952983        2.47688482633683
C            4.55168978877163        0.65120135966807        1.33697303571404
H            0.70083952266907        0.16306624404719       -0.95077576951257
H            0.62560073684690        0.35775073427130        0.79743212214820
H            0.93008740460721       -1.24434277282201        0.09600925356539
H            2.62859744965991       -0.08358246760091       -2.06658959598327
H            4.18993254377064       -0.21082239022743       -1.26354726202224
H            3.38845465922943        1.36736859402056       -1.39854577325434
H            1.74419264150845       -0.86556434916606        2.39228997233789
H            5.73922401355982        2.22949958261693        4.93632899637712
H            7.20626242503526        1.24841207516668        5.07956691224692
H            6.11068513901089        1.41945342336037        6.46191867970569
H            5.24138802061162       -1.91313551590540        5.24040526780668
H            4.75740426910936       -0.90330825009257        6.61265924144479
H            6.47531734722675       -1.12108783609068        6.22713813204517
H            5.00066200606974        1.07196809731087        0.45641977994544
