40
 energy: -7.353994185284 gnorm: 0.000475727204 xtb: 6.5.0 (97a52f5)
C            1.08577987937061        0.50008020298115       -0.14745070901420
N            2.48215620601824        0.06436973061789       -0.07484882101321
C            3.11015393656168        0.12747817602665        1.24091526135929
C            3.16497257070837       -0.41161591980990       -1.20280769503576
C            2.60105155647771       -0.32574653182387       -2.47655270654462
C            3.24932092995275       -0.79272544640190       -3.59675805039094
F            2.61775971853694       -0.74357972533547       -4.79077243372994
C            4.52767849661164       -1.35639122388663       -3.47378889144692
C            5.28673298925046       -1.88806143316688       -4.62092669878979
O            6.22496230203458       -2.63819385917241       -4.41845008440796
C            4.93057632340679       -1.50022545618349       -6.00787259500978
C            4.81908420899807       -0.16341080995518       -6.38067634425475
C            4.52566507587456        0.20277674523899       -7.67241462021716
F            4.47124523572692        1.51606435291945       -7.99099438615499
C            4.32443226109247       -0.78598147165100       -8.65537911876986
N            4.00304753526623       -0.43609130128070       -9.97415500173650
C            3.93680398836934       -1.43657437021724      -11.04184497457786
C            3.71010865363873        0.94061071116467      -10.35885153771293
C            4.45129379472537       -2.12308511116996       -8.27584854230606
C            4.74930470377533       -2.48746337028832       -6.98372269394753
F            4.83009274168015       -3.79475390429594       -6.65488543132203
C            5.08590928054343       -1.45896952840981       -2.20619129425790
C            4.43729106259565       -1.00244372767569       -1.08415576635019
F            5.02823572149543       -1.14633619903198        0.12368534795217
H            0.65849562106712        0.59434048883430        0.84839692319730
H            0.49439846031265       -0.22966848191651       -0.69616576297099
H            1.02404580094133        1.46519922159992       -0.64581064359064
H            2.56552001419106        0.79402999060627        1.90607136827214
H            4.12901186700067        0.49643807499915        1.14120457888936
H            3.14241824277921       -0.86934593423944        1.67604246987538
H            1.63309799528703        0.11877551501269       -2.60888133034987
H            4.96270658468305        0.60782289177669       -5.64575469956896
H            4.81292394809869       -2.08035834610378      -11.00668920145213
H            3.91436504105463       -0.95834897477856      -12.01852995130028
H            3.03807062866437       -2.03938132210244      -10.92911437696418
H            3.06104220746441        1.39616739227273       -9.61350598340923
H            3.21107593200042        0.98346053439045      -11.32446643242000
H            4.63664886010489        1.50928745426576      -10.40591157318738
H            4.29656002047613       -2.90540378557880       -8.99417551966404
H            6.05173960316486       -1.91902524823088       -2.09747207767835
