43
 energy: -8.074765007320 gnorm: 0.000481142842 xtb: 6.5.0 (97a52f5)
C            1.21381159698726        0.58308571768404       -0.78850152872644
N            2.45843045016852        0.14166093282665       -0.16961272981076
C            3.06770493013793        1.06370395258923        0.79108302805957
C            3.04669694256362       -1.09631613985572       -0.47862082696030
C            4.12067524400067       -1.57901385300137        0.26012945575317
C            4.72882095120455       -2.80098085614758       -0.01542578788492
C            4.24622600802889       -3.55138472493336       -1.10361374882153
C            3.16794303398219       -3.07621805531267       -1.84282000176918
C            2.56587333210080       -1.87921097862647       -1.55342154526587
F            1.53575699891311       -1.45183091235347       -2.32389462901258
C            4.87188450406868       -4.81262613832173       -1.46993052697291
O            4.43560895068098       -5.49512295097645       -2.39036975643806
C            6.04772064342730       -5.22278427112714       -0.71806917388801
C            6.73148184461918       -6.37802288034399       -1.08273791078386
C            7.85948029488615       -6.78831877789219       -0.42074930706199
F            8.46462734348272       -7.94266900361293       -0.79332709703499
C            8.35982409832878       -6.01667363867260        0.65316063792171
N            9.52972178068839       -6.39901009549021        1.33047485921893
C            9.95206606452160       -5.73930586513281        2.56769853583991
C           10.38798323732467       -7.47399124940554        0.84592027594385
C            7.66896718828668       -4.86668578944388        1.01742447001991
C            6.50930368450367       -4.45373461092276        0.36630932493018
N            5.79711045013864       -3.30017392622401        0.76164044093856
C            6.11864325360872       -2.65935008389829        2.03891478162135
H            0.76005602597156        1.39701347074342       -0.22721642927801
H            0.50962045225512       -0.24568930042242       -0.82332594237934
H            1.40963568987428        0.91490737571214       -1.80603141384155
H            2.59499511846800        2.04219165946091        0.74230773111066
H            4.12493062387401        1.19127662222358        0.56804542560824
H            2.95696725635610        0.67618246645395        1.80164496579654
H            4.50134553304223       -0.97741620001251        1.06131507915236
H            2.80284805907512       -3.65826881100780       -2.66887428963004
H            6.36676631456062       -6.96385377705606       -1.90626896487244
H            9.10757691110343       -5.63954997605064        3.24632275510593
H           10.35392645428531       -4.75292550579920        2.34578749669553
H           10.71983649704605       -6.32058458529332        3.07368823759929
H           10.51379390730031       -7.38309050708760       -0.23104882510495
H            9.92604402346013       -8.43535812260741        1.06116020685487
H           11.37016165293796       -7.43633666501728        1.31214724350286
H            8.07325049580421       -4.25324538881326        1.79809571806624
H            6.49802097543837       -3.38905245308245        2.75003692082673
H            5.22803166932583       -2.22463920074143        2.48613323250151
H            6.86362951317274       -1.88037690300698        1.89064961247131
