37
 energy: -7.203585705427 gnorm: 0.000753028961 xtb: 6.5.0 (97a52f5)
C            1.12613008197416       -0.44386746894903        0.36737006422786
N            2.48765083687297        0.00953868327960        0.10422930210737
C            3.14978924778133       -0.57489090334099       -1.06387750421900
C            3.12394749482365        0.96345972983530        0.91616736061388
C            4.32523685780181        1.54514453041357        0.52792195730396
C            4.97101444780236        2.50976659525185        1.29700643222228
C            4.39227678335642        2.87442070229624        2.52681907178464
C            3.19078295720680        2.29496150548867        2.92087846409551
C            2.55433156112173        1.35931677382997        2.14775793458629
F            1.40452583270016        0.80000148530487        2.59577567661856
C            5.04458528652157        3.84117712090987        3.39551232804610
O            4.53034157280115        4.19494328690639        4.45062746291335
C            6.33804615420055        4.35668448042733        2.97769144247108
C            7.03267424709471        5.22716182416059        3.81422123778990
C            8.26512591091193        5.71448475749450        3.47039864931696
F            8.92895533069544        6.57253903745576        4.28072612733798
C            8.85360840561107        5.32258044046509        2.24907105316560
N           10.10136018653637        5.80515311527484        1.92745112319073
C            8.15746829729544        4.46223682878928        1.40907379269786
C            6.89523631821106        3.97634293635486        1.73970480101211
N            6.16819091198964        3.12880502203699        0.87516794639527
C            6.61704537321229        2.95922058453551       -0.50877098472775
H            0.68831587204878       -0.90891985964158       -0.51330111948904
H            0.50823376650871        0.40486153145300        0.65303400608575
H            1.13258220106761       -1.15947302362165        1.18676177341302
H            2.61136991645778       -1.45260216233160       -1.41437461465436
H            4.16028699012031       -0.88366980872007       -0.80512594782647
H            3.19015996994798        0.15389907186761       -1.87072011914742
H            4.77226279489429        1.22990530329862       -0.39383121213270
H            2.75503460874824        2.58082781954370        3.86060612346698
H            6.59320827417471        5.51962243983415        4.75028409716936
H           10.53329349088848        6.51955262937532        2.48523123248998
H           10.51133085941899        5.70679708290475        1.01458469649923
H            8.63310535339064        4.14941734304337        0.50022272470357
H            7.13595427243811        3.84946535247574       -0.85476648064355
H            5.76890850562927        2.81669004787658       -1.17363167186225
H            7.28228902774178        2.10179516442131       -0.58354722702380
