50
 energy: -9.218692592022 gnorm: 0.000509644840 xtb: 6.5.0 (97a52f5)
C            1.12274033881429       -0.46755105100257       -0.15715904519703
N            2.38608942991625        0.21476929929668        0.09878368359302
C            2.77892552502171        1.23487688152642       -0.87521403920721
C            3.18727959661317       -0.08913185987036        1.21223184387656
C            4.26973834311064        0.71485357249600        1.54992204200069
C            5.07682221476485        0.45585635730595        2.65462913341339
C            4.75754320587583       -0.64881618808058        3.46602077229682
C            3.68335636986475       -1.46457349980946        3.12502357816775
C            2.90791330989378       -1.21408882974936        2.02246590783834
F            1.90174809877412       -2.06787215038041        1.70998160270110
C            5.53027529058363       -0.93469206935385        4.66549708921124
O            5.29505613785982       -1.92228082258143        5.35358051903611
C            6.57591277509412        0.00900889205758        5.03158226177257
C            7.27960202696605       -0.16694435249496        6.21887055278208
C            8.24270844183851        0.72049173851985        6.62311840285315
F            8.85372596913727        0.54991333113352        7.82189592137183
C            8.54193530683625        1.84275312740488        5.81782107968902
N            9.52354144485344        2.76837029783321        6.23049075377471
C            9.57404059795958        4.15929850838707        5.72973631329492
C           10.77461321541364        4.35478605924873        4.80012500526061
C           12.07691309202135        3.96445156424499        5.52064061387894
C           11.99126210250748        2.53430421046798        6.08488260997371
C           10.74219072263650        2.35343780745141        6.95719655411735
C            7.84352649916652        2.00966628243721        4.62773810752838
C            6.87067712134213        1.10850655098265        4.20352850821100
N            6.18711540199753        1.26629723441574        2.97801150681621
C            6.68076540294999        2.23656722546687        1.99805660874454
H            0.50161955796303        0.09989616416853       -0.84695286659085
H            0.57697876699200       -0.59017582609241        0.77608137956942
H            1.31729216126953       -1.45204119742898       -0.57749393559466
H            2.18721037439848        1.14938363343066       -1.78407390015212
H            3.82579594965781        1.11221178877711       -1.14519080613922
H            2.62973212734311        2.22778376677753       -0.45593024091307
H            4.45678250119823        1.59319327118788        0.96432348292935
H            3.45385365019253       -2.31317580158939        3.74261017656406
H            7.04883113998280       -1.00910730502534        6.84468305833240
H            9.65634493917411        4.82102533257111        6.59766361491000
H            8.62732362261223        4.41871421188920        5.24648603522308
H           10.82097152005900        5.38895392061017        4.43256632406852
H           10.64871138422972        3.72587125279873        3.91104393510556
H           12.26393155620511        4.66818745247375        6.34054992682002
H           12.93783799802367        4.06408587219411        4.84558957900809
H           12.89800887562116        2.28651219075306        6.65349233122425
H           11.95664496648779        1.81847452473356        5.25498418217459
H           10.81449266083614        2.94847123925623        7.87233044479184
H           10.63232188498065        1.31139180094515        7.27067954359439
H            8.07109741646008        2.85854912849299        4.01453677183442
H            7.76068524479277        2.34044943241929        2.07137823551384
H            6.21444814106775        3.20587769553222        2.16181599583428
H            6.46894557863588        1.90239933376957        0.98518884409373
