41
 energy: -8.534876090224 gnorm: 0.000771418337 xtb: 6.5.0 (97a52f5)
C           -1.26870263535300       -0.44610884197875       -0.00732080318679
C           -0.95405271075471        0.85908847409249       -0.07317053769174
C           -1.92450121215503        1.97307047724487       -0.11790288432331
C           -3.00727703511231        2.00903480599288        0.75673969743638
C           -3.90509171615870        3.05438321892425        0.72197917067223
C           -3.73864956285235        4.08014463683390       -0.18732047314858
C           -2.67219715914091        4.05780428318391       -1.06371509070678
C           -1.77365188402169        3.01352721294970       -1.03101523313243
C            0.52024375411469        1.00274198876349       -0.10082726212930
C            1.25664267136717        2.28463503025681       -0.10266223118421
C            0.90648094157627        3.30682614507336        0.77575000008926
C            1.58869369484337        4.50421048854370        0.77141235806219
C            2.63449705445414        4.70078587863712       -0.10842900039588
C            2.99733729264895        3.69585765271652       -0.98314210504414
C            2.31632819222496        2.49727659287090       -0.98066332700550
C            1.08330288353918       -0.21773428656624       -0.07371386964603
C           -0.00115693429576       -1.25871217841306        0.01336364053986
C            0.11818934411724       -2.13109747135178        1.24867436250106
C            0.23878606159693       -3.50883362702556        1.14213056959806
C            0.34579320150568       -4.29415412406150        2.27234502504528
C            0.33345263902527       -3.71130403078049        3.52299211324329
C            0.21361518378778       -2.34199145923623        3.64178775291675
C            0.10687631914387       -1.55868094238392        2.51069624106565
H           -2.26869031585862       -0.83984146111122        0.04293997720502
H           -3.12992746252027        1.21126720827186        1.46932520542319
H           -4.73712547027333        3.07227844817633        1.40708461932998
H           -4.44067101846746        4.89780798679143       -0.21250998158884
H           -2.54084207335096        4.85856136375227       -1.77336925972085
H           -0.93852087188372        2.99356471035254       -1.71009761810004
H            0.08859263659318        3.14987582396472        1.45800883930936
H            1.30451306370039        5.28816780654620        1.45455057144035
H            3.16666921261577        5.63830093210223       -0.11262111299827
H            3.81351798278438        3.84959804390152       -1.67049695688944
H            2.59279617079097        1.71358081430241       -1.66504067187781
H            2.14143796643108       -0.40885390110838       -0.03528277611909
H            0.03516344656750       -1.89261993016791       -0.88772166640055
H            0.24822073484789       -3.96286549818276        0.16584197908240
H            0.43893048269251       -5.36393089388803        2.17762084277257
H            0.41705222903371       -4.32470342761602        4.40556517922109
H            0.20382562850326       -1.88376085492916        4.61745003371999
H            0.01390927369334       -0.48956709544498        2.59729468261509
