39
 energy: -7.395907383446 gnorm: 0.000867762231 xtb: 6.5.0 (97a52f5)
C            1.10922886192110       -0.60143670633586        0.11210866822232
N            2.46044359465230       -0.06305163926544        0.00149528004837
C            3.14500302222862       -0.28263059218343       -1.27426701478418
C            3.08266609691201        0.60802213118384        1.06591071442429
C            4.29371131003309        1.26378070782353        0.88570314249829
C            4.94282672611276        1.92487199155800        1.92352939064274
O            6.15185316510465        2.55895195811210        1.66626749592347
C            6.78868997313969        3.21487716801172        2.71214381338790
C            8.00016853698693        3.85417359149028        2.46895447485064
C            8.69651474000960        4.52792712781836        3.46388953883448
N            9.91657493250478        5.16490696210077        3.18706924282979
C           10.40539398734781        5.33057144218825        1.81649397909241
C           10.77258020016425        5.68458778711977        4.24744508124426
C            8.14343380496089        4.55814078054422        4.76565451956243
F            8.76871417769170        5.21454791992641        5.77210361594010
C            6.94953483669762        3.93072411046316        5.01470087552476
C            6.25678319410781        3.25784952168024        4.01465318096750
C            4.99346073540441        2.60460966688311        4.30377670912707
O            4.49946663526821        2.62661997101194        5.42406814533360
C            4.34450235421645        1.92522442907887        3.19756640890191
C            3.13005612184971        1.27469253851474        3.38259270733537
C            2.49737051325431        0.62492994828464        2.35364894140208
F            1.32589182250425       -0.01096329825125        2.59386221383437
H            0.70087478172266       -0.85025888831617       -0.86536623377898
H            0.46059422926070        0.13622007688983        0.58089893070004
H            1.12378550062886       -1.49505823520252        0.73322958926431
H            2.63309132789406       -1.04084580510709       -1.86215898847200
H            4.16184404394939       -0.62664556648070       -1.09913506209122
H            3.17036030157461        0.64220610029895       -1.84641233221728
H            4.75581888960117        1.28431463076298       -0.08239641822167
H            8.39984686411306        3.79948320239099        1.47482007345169
H            9.59741712318469        5.66290282608408        1.16782138941968
H           10.80122969637770        4.38702573232315        1.44646238649024
H           11.19344654320613        6.07947923356906        1.77587211011001
H           10.84673905917349        4.95041567580251        5.04711688837244
H           10.33722133884485        6.59555092107254        4.65248869852982
H           11.77395251928631        5.89782147452952        3.88015523623077
H            6.53753267153859        3.96351259047105        6.00686277743725
H            2.67689576657204        1.27841851315255        4.35707982963109
