47
 energy: -9.579139708207 gnorm: 0.000928735925 xtb: 6.5.0 (97a52f5)
C            1.18916795513749        0.15796442924452        0.57473384359213
N            2.25087012819390        0.03870035574589       -0.42459570723418
C            2.39531536004518       -1.26223112143409       -1.07860736836609
C            3.10153301434626        1.11550153672781       -0.72974213720815
C            4.02009173789783        1.03451954027782       -1.78401504196409
C            4.84850700333967        2.08371407107424       -2.07946022882140
C            4.80404481172821        3.27081565916423       -1.33938444948384
C            5.69838946619949        4.35187473846337       -1.67341725596148
C            5.95649852931073        5.66984801107029       -1.22953076658580
C            5.31019815115807        6.52791856134306       -0.32800978235256
C            5.75040234762906        7.78911128186348        0.13012009607283
C            4.77008618570408        8.72488652654344        0.55433650753136
C            5.10853509741681        9.97038709857812        0.95373565911349
C            6.46697244704787       10.38668546382493        0.96530621675970
C            6.83676480756726       11.68814161662094        1.33782226898709
C            8.15299246022876       12.06416381491304        1.34432706512259
C            9.13890943316927       11.15537901748882        0.97763442576771
C            8.80324067925687        9.87775834208368        0.61465814085344
C            7.46524023139831        9.45791286250735        0.60442481587296
N            7.09087798898427        8.14704560509257        0.26118136593527
C            8.13563489410192        7.11950255808392        0.24933451320190
C            7.02714630045470        5.81865003072316       -2.23300732436018
O            7.80436540734235        6.66561672114984       -2.61922215740283
C            6.75015415166778        4.42631093913736       -2.66335747364242
O            7.21881305225588        3.67590949437582       -3.50226688220244
C            3.89177604933436        3.35175305808820       -0.28046730869069
C            3.06166071654299        2.30245843983895        0.01343768660325
H            0.52277166680534       -0.70109533104412        0.53903808195193
H            0.59618078637497        1.05031700413694        0.38509062504059
H            1.62181816031971        0.21921585158361        1.57121050071709
H            1.77913721261985       -2.01457567808993       -0.59110624754581
H            3.43089877997989       -1.59239152574273       -1.02737247876761
H            2.09263870196533       -1.19038357994123       -2.12124764663141
H            4.06832367639019        0.13745079811160       -2.37472636893118
H            5.55455483886966        2.01221185020469       -2.88871760982013
H            4.31612553461187        6.23976880610567       -0.03251394736251
H            3.73426750664718        8.43287197051590        0.52861421937793
H            4.34856410879415       10.67002164678043        1.25606105481925
H            6.07047371733938       12.38959697317269        1.61906113632600
H            8.42637572558824       13.06643130683259        1.63044476628877
H           10.17274698837877       11.45965678035502        0.97711661678759
H            9.57458980985695        9.19242652396566        0.31217836448626
H            8.83042679069907        7.27704385198851        1.07168531686781
H            8.67829032835814        7.15495562304900       -0.69273037390846
H            7.70362294853557        6.12961680001056        0.37296183345329
H            3.85833224068489        4.24330400560904        0.31790827219012
H            2.37675206803907        2.38359767254631        0.83830516213003
