57
 energy: -11.769649069738 gnorm: 0.000835416285 xtb: 6.5.0 (97a52f5)
C            2.93342947199744       -1.37268328567190       -0.15974474844486
N            3.05283257433284        0.08198941730432       -0.25950774157223
C            2.73366370861832        0.68059235271704       -1.55562262373582
C            3.45195022830123        0.86626607479306        0.83691425179201
C            3.45396952390456        2.26520278141310        0.76326405616223
C            3.83679291040732        3.02740495492104        1.83444702587741
C            4.23402804820293        2.43353380985485        3.03780893826491
C            4.62735325826589        3.26042029002971        4.15147553083928
C            5.00790810151133        3.06694109708452        5.49907755775992
C            5.00565232027262        1.95939215750603        6.36564282250305
C            5.61753673024305        1.86367430660110        7.64746401016063
C            4.90465072616597        1.17813247556762        8.66660118839126
C            5.42808977827324        0.99261562800185        9.89648860854691
C            6.74053543588339        1.43991687838464       10.19942198050164
C            7.30378589127014        1.23798516074529       11.46923118158180
C            8.58991054012511        1.62371190095636       11.73275602611428
C            9.35347910468771        2.21584375979234       10.73469963181510
C            8.82159001923816        2.42703012832474        9.49066347384945
C            7.50096062056907        2.06303465819285        9.18655671247433
N            6.92445717813044        2.27440566892908        7.91940402060293
C            7.81304800028430        2.68539973643876        6.80604787527763
C            8.47712347854729        4.01479973358505        6.99063528762946
C            7.90322107603929        4.99252292832075        7.78439780396635
C            8.52462623977503        6.20928316668338        7.97167461225265
C            9.73545618367777        6.46344791681280        7.36321605104988
C           10.31772822581628        5.50086440799091        6.56537152135651
C            9.69129347484003        4.28567471463104        6.37842907922933
C            5.14714341622392        4.52124812900995        5.69099181556926
O            5.36681069579190        5.29106495767256        6.60143635714454
C            4.78456508938340        4.69453957707541        4.26140590260654
O            4.65916384683908        5.64903043823294        3.51297585301003
C            4.24302385466496        1.03568739742236        3.11160887499450
C            3.86099946193273        0.27392684134051        2.03905265581047
H            2.45891700782049       -1.78777678588278       -1.04639058670100
H            2.32496977277870       -1.64001384350369        0.70172289145738
H            3.91934357509991       -1.82080910173081       -0.05470314069037
H            2.60640160178856       -0.08421110520448       -2.31860152971500
H            3.53984315667270        1.33891281042738       -1.87250651225651
H            1.81110660991787        1.25298157526311       -1.48443875235932
H            3.14098444398588        2.74608393270680       -0.14600039906374
H            3.83717617167473        4.10165763113332        1.76893805239870
H            4.36266090345286        1.14121283989134        6.08028077858609
H            3.91302967120465        0.82144794023811        8.44646089595361
H            4.86185133701654        0.48753464957516       10.65992981973787
H            6.71149017931013        0.76731694477294       12.23480135836514
H            9.01393491032547        1.46237436484223       12.71016683805106
H           10.36913263806439        2.50993125690039       10.94321881081365
H            9.42949451309646        2.88746676205760        8.73504941579442
H            7.25286241180516        2.69106633610508        5.87040355072574
H            8.57133979883385        1.90587564118001        6.69012159015107
H            6.94984677223816        4.79009822933391        8.24119463096589
H            8.06138867745572        6.96151098930877        8.58877651631741
H           10.22358676617475        7.41352459605988        7.50705662400475
H           11.26290422309769        5.69872841198191        6.08707458664463
H           10.14518559482306        3.53397957228382        5.75560761265624
H            4.57164912538569        0.56057589945431        4.01788864690093
H            3.88579090199511       -0.79814969300216        2.11561272544380
