54
 energy: -11.264044499076 gnorm: 0.000738472490 xtb: 6.5.0 (97a52f5)
C            2.31135682347723        1.43811594036633       -0.20191722208583
N            2.77016545977697        0.06220551825138       -0.00656924636403
C            2.55248276510743       -0.52326015255518        1.31652470274697
C            3.39241644366013       -0.66100267039224       -1.03930403390418
C            3.72011361054289       -2.01203172705438       -0.88160775101882
C            4.32956275786697       -2.71338535998001       -1.89137469860205
C            4.64973308725278       -2.10495644473983       -3.10478170367670
C            5.30797885583910       -2.89352669215552       -4.15925253331015
C            5.96865879517601       -2.27578363398044       -5.20101702466127
C            6.57755543766273       -3.05052829283736       -6.16602429389873
C            7.29653222618902       -2.43383119282264       -7.29577455922627
C            7.58012256002109       -3.21586336803579       -8.43793919157242
C            8.24144043188010       -2.69888623121100       -9.50753174635776
C            8.67365129862849       -1.35254999045981       -9.50478372368774
C            9.36038999752376       -0.77831281069610      -10.59681059402448
C            9.76681651184876        0.52235020161406      -10.55513177737540
C            9.50958888334319        1.31106479963446       -9.42681288448078
C            8.84772771771505        0.78942190184364       -8.35629865364138
C            8.40943172520830       -0.55518025537797       -8.36543976402507
C            7.72058607558492       -1.12330782538018       -7.27433609979026
N            6.51847871015540       -4.37958815988415       -6.10149015607457
C            5.86901888486112       -4.89597679481635       -5.05816311562218
C            5.81253618771020       -6.36670406310432       -4.98168318670820
C            5.14655330900512       -7.00199491175567       -3.93802811288899
C            5.09138558159752       -8.37693446754826       -3.87206292037896
C            5.70033901888735       -9.14145210747315       -4.84781445758974
C            6.36505773145567       -8.52649282342888       -5.89032561640364
C            6.42079695514950       -7.15174699460370       -5.95663289329316
N            5.26466910421383       -4.22329661911516       -4.07962556775548
C            4.31459793284255       -0.75855393188671       -3.26938310155132
C            3.70214651260877       -0.05516595798251       -2.26218563696528
H            1.73216135131060        1.78333969154694        0.65211149426203
H            1.67733900486636        1.49946086172551       -1.08440927768259
H            3.16453312566999        2.10187833396881       -0.32896160517194
H            2.20767274640053        0.22710700330614        2.02520749719654
H            3.48205342284973       -0.94170525799723        1.69795235953498
H            1.80437612210441       -1.31155153188366        1.25756561716330
H            3.48273442219328       -2.50865961930753        0.04210341303666
H            4.57376647790282       -3.75293416528582       -1.75942986344245
H            6.00976531304720       -1.20582657804673       -5.25774571708585
H            7.25847021719788       -4.24251373431791       -8.44356301094595
H            8.44591362510077       -3.31064413365090      -10.36905013941619
H            9.55890433415906       -1.38368697758679      -11.46437499331977
H           10.29156957524066        0.94968357174855      -11.39389370830355
H            9.83903069170445        2.33703006907105       -9.40803013061376
H            8.64910700434619        1.39694484332888       -7.49024664568872
H            7.54724208724748       -0.51408809893003       -6.40739123483363
H            4.67380478347456       -6.40020766689967       -3.18184521317239
H            4.57246440113247       -8.85692894804789       -3.05844146669197
H            5.65586919560283      -10.21710027501919       -4.79697819572282
H            6.83968831855827       -9.12183377207914       -6.65321363488157
H            6.93526420786938       -6.66483000453704       -6.76632654579092
H            4.51915251717643       -0.26981411681206       -4.20525168283010
H            3.45942566203111        0.98173562327632       -2.41137975140531
