40
 energy: -7.870083456423 gnorm: 0.000650223236 xtb: 6.5.0 (97a52f5)
C            1.57170206645390        1.08409288894497       -0.73024566190676
N            2.48487124259404        0.10436959667512       -0.14228288475243
C            2.70274166808474        0.19284042227091        1.30110654204609
C            3.11190186871506       -0.88646105213502       -0.92724141938560
C            3.83499393871970       -1.92657087288212       -0.33505244633848
C            4.44149166888868       -2.89293664248675       -1.09962499070736
C            4.36155161744504       -2.86198888195692       -2.49300587139032
C            5.00663845030084       -3.90248601529549       -3.30172131278204
C            5.09739456246461       -5.23977546028633       -3.01937795263836
C            5.81507503635204       -5.83162550793869       -4.08323280941336
C            6.14021309360434       -7.25619973975901       -4.21071264818465
C            6.90207998546267       -7.69841389032593       -5.28957690246201
C            7.21952796631851       -9.03144685656844       -5.43187593603158
C            6.78071042437210       -9.94997402394488       -4.49861395261492
C            6.02272287971790       -9.53028376319526       -3.42298315543401
C            5.70452386533960       -8.19739889825143       -3.27818384196852
N            6.16960499365648       -4.90905201924283       -4.97687144893413
N            5.69309275256457       -3.76160542452590       -4.51304210918993
C            5.93726207467684       -2.48892727610168       -5.19187420690226
C            3.63606285222568       -1.82835613301231       -3.08649952100065
C            3.02662717054988       -0.86319809391935       -2.32273379995212
H            1.01017568598039        1.60700045823605        0.04178705582929
H            0.85650429315578        0.58724629722907       -1.38334960667999
H            2.13191975500656        1.81769896202179       -1.30713845444547
H            2.32888965296805        1.13633673540585        1.69443406185284
H            3.76637164070915        0.13582252966828        1.52540375546470
H            2.18739779757726       -0.62142552679031        1.80746597022393
H            3.90642463111498       -1.97531358810348        0.73685753446101
H            4.99575355596108       -3.68615723396702       -0.62808115143254
H            4.68731320027445       -5.73396544596491       -2.15605997074595
H            7.23998705714213       -6.97827135464744       -6.01400591160484
H            7.81023184837285       -9.35803708749506       -6.27218274423994
H            7.02904166755966      -10.99293508095865       -4.60911015199911
H            5.67882867406884      -10.24722532406156       -2.69522495357042
H            5.11239401877259       -7.87683352691314       -2.43936504730021
H            6.87396404810436       -2.54234124669989       -5.74100023452000
H            6.00489488447075       -1.67906759473544       -4.46920127495419
H            5.13355892815505       -2.28012125621647       -5.89374163181175
H            3.54093284210392       -1.80584389051213       -4.15790128542876
H            2.48224564002360       -0.07070918156253       -2.80445962914354
