41
 energy: -6.695882887757 gnorm: 0.000911700249 xtb: 6.5.0 (97a52f5)
C            0.95827410594736        1.38292285705776        0.52889972916326
C            1.25552113050512        0.15010868406473        0.20076838718665
C            2.58895242911327       -0.28381939294594       -0.27098829293808
C            3.73801675053841        0.44099270882063        0.03984362634834
C            4.97622347067474        0.02519573472232       -0.40151423599314
C            5.09384318007822       -1.12252174861934       -1.15905082280950
C            3.96825746355764       -1.85746714159729       -1.47137896643028
C            2.73001117304398       -1.44309070527580       -1.03018517243826
C            0.15835645542491       -0.82832040906943        0.49296398166247
C           -0.10140879277557       -1.27993293753913        1.88801262688273
C            0.12295189361987       -2.57128160913650        2.26780624000509
C           -0.09641185218307       -2.95493117686729        3.51139948094150
C           -0.53443604548660       -2.09212121497096        4.41325747134387
C           -0.75736232205694       -0.83158571959666        4.08064869326962
C           -0.54788070919493       -0.41657266794200        2.84546292338321
C           -0.46948327162429       -1.28846687586562       -0.57436757870666
C           -1.51862157413502       -2.21058004821351       -0.38931923322357
C           -2.55294650573214       -2.12966753382026       -1.31358054575061
C           -3.83999060707897       -2.53895523765499       -1.29613411157906
C           -4.59837615321503       -3.05728788789186       -0.25304524028814
C           -4.29233726366510       -3.15679217726319        1.09514217293461
C           -3.19078602764223       -2.68638252542646        1.68519698990972
C           -1.03440470342300        6.00668124464681        0.07935084959874
H            1.61496137759406        2.19434925670255        0.41234661011248
H            3.65556375214883        1.32781714521423        0.64368478132367
H            5.85549270869814        0.59723155596759       -0.15317376609635
H            6.06263239754654       -1.44493723379339       -1.50454132618283
H            4.05769262912189       -2.75616939853920       -2.05974815507871
H            1.85347434177998       -2.01829148557326       -1.27112146937926
H            0.64946075064274       -2.48662587133624       -4.94140800215381
H            1.13018074044878       -6.39832682044478       -3.31701715809218
H            0.45769581272163      -10.57854277315421        1.33288307664049
H            0.05080787996336       -8.70562299347769        8.29649448400914
H           -0.50435558700944       -0.31724218604955       11.41263568805035
H           -0.40362513396097        1.86055205298002        7.80046314844041
H           -3.39355993770486        4.45491304886466       -5.21296594593923
H           -4.34422286282096       -2.45866051527296       -2.24807854472788
H           -5.58051099598041       -3.41374164905373       -0.53015775501644
H           -5.02821262070671       -3.62541568851594        1.73190874158888
H           -2.98124781663880       -2.76480560937338        2.71143685168711
H           -1.83510965577134        6.58475494335499        0.34619977193991
