35
 energy: -7.033190753560 gnorm: 0.000602466940 xtb: 6.5.0 (97a52f5)
C            1.33349133612218       -0.98706718576967        0.17401494097996
N            2.56877388693068       -0.20440495603742        0.20986207471184
C            3.25254100549699       -0.00133500766458       -1.06741905845022
C            3.07069678727515        0.32742618295487        1.40901503315074
C            4.17696764199400        1.18447785469329        1.41480426989469
C            4.67178903690278        1.69997609711225        2.58598739816311
C            4.08365234163826        1.38574378348260        3.81313635444665
C            4.58024641985226        1.89653244491149        5.09574270743553
C            5.50537010218869        2.90179979525438        5.15790953433902
C            5.99846444709133        3.39542124952052        6.39763739105517
O            6.82970918682572        4.30213261627109        6.45360116030256
C            5.46639529566729        2.77098010330989        7.60033782571530
C            5.88699528562369        3.16860523465634        8.86513712267129
C            5.37733630941711        2.57297931364222        9.99111115590902
C            4.43315965804426        1.56293903239915        9.87396560957875
C            4.00710609837477        1.15670506997281        8.63672104275014
C            4.51142912187670        1.74808179824513        7.47223435434823
O            4.05992553587363        1.31045939728995        6.23410702067244
C            2.98447842841855        0.52971360537273        3.80950696911030
C            2.48614669020521        0.01363219761453        2.64064333697192
H            1.00488385944114       -1.14907195783653       -0.85032337461779
H            0.54061480888048       -0.46009268669875        0.70054476191657
H            1.49262641344736       -1.95584032328714        0.64296175632414
H            2.84338951629688       -0.65402559634039       -1.83562638181759
H            4.31165583123965       -0.22921350777016       -0.96633819646820
H            3.13697085333850        1.03072867194368       -1.39206810338605
H            4.64220933734305        1.44895128964852        0.48232081259360
H            5.53452300473549        2.34049665810423        2.55513806613385
H            5.87699653503719        3.36101704827429        4.26394608281295
H            6.61927687821887        3.95381812506539        8.94207603555934
H            5.71069605791403        2.88776643529029       10.96625342264820
H            4.03503529220129        1.09668116807699       10.76004251134830
H            3.27599798496889        0.37447423149555        8.53592452948095
H            2.53215995311030        0.27610123760079        4.75277816991245
H            1.64188905800314       -0.65129942080633        2.67094366380266
