43
 energy: -8.908153729831 gnorm: 0.000692148173 xtb: 6.5.0 (97a52f5)
C            1.63798610106160       -0.14320863302729       -1.16616370416004
N            2.63519267361979        0.09059553299388       -0.12150966422302
C            2.98304999913441        1.48571079898776        0.15274245422759
C            3.24680786398515       -0.97012979449544        0.56391180563519
C            4.10242680773491       -0.73397903228061        1.64624248448247
C            4.69727111839973       -1.76809535158266        2.32225556773232
C            4.46667441899941       -3.09467455151226        1.94931706398847
C            5.06600124562411       -4.24223590786645        2.63439228243680
C            5.73082463756071       -4.10964139713615        3.82475899277910
C            6.29631654383067       -5.22087685564669        4.47634060367874
C            6.15995344021207       -6.46911241766985        3.87010412116767
C            6.69993002285298       -7.61175125878550        4.47813274188080
C            7.36131216442020       -7.53065759364498        5.66036573224859
C            7.53430298086945       -6.29296439196630        6.32053047853148
C            8.23428207690442       -6.19902413453514        7.54789676202567
N            8.82957965407830       -7.37545597175473        8.18708506010191
O            9.92113389862379       -7.24236094807095        8.76259120759550
O            8.22740226374377       -8.45877495792234        8.14179569005570
C            8.39197995692859       -4.98344093160602        8.15607346263780
C            7.86658335319578       -3.83217911748608        7.58589990253003
C            7.18595762282075       -3.89522557789718        6.40172389137538
C            7.00125810547185       -5.11857891223944        5.73340702299912
C            5.44658362174988       -6.59397924117553        2.59978101181292
O            5.34092530988511       -7.70123718029616        2.08911436015894
O            4.91303886656637       -5.46546105956262        2.01597123805493
C            3.62487799405649       -3.33112381187949        0.86430961143613
C            3.02596457670208       -2.29996107387934        0.18863056948774
H            1.13622178971431        0.78231425001331       -1.43955049877862
H            0.88215495755754       -0.83998487651463       -0.81006540492247
H            2.11814672283683       -0.55251421484724       -2.05263878734127
H            2.53718976703370        2.15095646402249       -0.58308834298376
H            4.06249756366291        1.61497355835230        0.11146959911770
H            2.62228987729437        1.77120985246071        1.13865561030423
H            4.28887906666698        0.27811143791762        1.95778517004751
H            5.35910018139044       -1.54854512099657        3.14026502761616
H            5.80350053608253       -3.14226639608000        4.27800876001912
H            6.57055832708495       -8.56015824645175        3.98477603669992
H            7.75483888571718       -8.41856520915428        6.12256366348578
H            8.93785663378496       -4.93376509912203        9.08289968998397
H            8.00001868987346       -2.88390476596406        8.08066131054774
H            6.79151611854908       -2.98974491569166        5.97904078539596
H            3.45277407323586       -4.35188834981702        0.56794436150235
H            2.38703949048370       -2.51466459618977       -0.64898773136647
