30
 energy: -4.307074645171 gnorm: 0.000829015497 xtb: 6.5.0 (97a52f5)
C            1.64144286854991        0.91922160617699       -0.61560320633259
N            2.47519387522484       -0.12366480457396       -0.02170009649227
C            2.71987598935766       -0.04375382750326        1.41619839493210
C            3.13060339224161       -1.06240903660596       -0.80612042131100
C            3.01009744340187       -1.20697082213905       -2.16699675258229
C            3.80252347761069       -2.23534974122986       -2.71119802125030
C            4.55910740334526       -2.91270839582882       -1.78970618419685
C            5.47502759992857       -3.99896730066857       -2.03199615700812
C            5.69821537911922       -4.51415663363653       -3.31530315280213
C            6.58006119434922       -5.53817358739512       -3.50281178849771
N            7.25802352098325       -6.06965924015371       -2.44898135115626
C            8.18967903468504       -7.17879672986753       -2.67225425524467
C            7.05605425657932       -5.59652016821048       -1.18884812188471
C            6.18095252265333       -4.57422702304590       -0.96904727097234
S            4.25137480461197       -2.24393567670915       -0.19953552299211
H            1.28212868574539        1.60474456393127        0.14839048429149
H            0.78397099709439        0.46888367249444       -1.11009491827712
H            2.21942421118953        1.48549043385688       -1.34223887802489
H            1.81425320915420        0.25633772352447        1.93905754443323
H            3.50678383206641        0.68068618659825        1.61581704453644
H            3.02911050082416       -1.01467278435730        1.79620821665298
H            2.36455360497273       -0.58514128053351       -2.76679755087173
H            3.81373673526551       -2.46018284630189       -3.76570647721785
H            5.17193755210516       -4.10008397483011       -4.15651573577976
H            6.75471772040505       -5.94458313761446       -4.48432602117953
H            8.70744128674643       -7.04893005870952       -3.62000244347986
H            7.64260441799456       -8.11866272519102       -2.69142858040054
H            8.93159254912545       -7.21682762107228       -1.87783963624306
H            7.59868510287104       -6.04507780579470       -0.37463545049435
H            6.02393683180299       -4.19783896460623        0.02638630984932
