17
 energy: -3.489193465571 gnorm: 0.000902260340 xtb: 6.5.0 (97a52f5)
Br          -1.47519278030445        0.46303360789419       -0.82744229490360
C            0.34684342808947        0.32137755524638       -0.36756509803080
C            0.96408427646690        1.09244072883929        0.55699715031725
N            2.29477558054550        0.84924231052986        0.76643179370184
C            2.73581863664790       -0.11593262553672        0.00630477302566
C            4.10710022375264       -0.58471936310036        0.00972703500459
C            5.05848003790403       -0.02846638494794        0.85039052549437
C            6.34781549299301       -0.49770546721090        0.81448703914685
N            6.77468421022063       -1.46791927141636        0.02148352336717
C            5.86026584606840       -1.99386087713532       -0.77816593905403
C            4.54625322615528       -1.60094745710267       -0.82595554205930
S            1.48485967599879       -0.79004570721239       -1.03195189619438
H            0.44798316426108        1.86945241373490        1.10748834049799
H            4.77359022560419        0.76746967246132        1.51609583446618
H            7.08702256942869       -0.05822554760443        1.46805105867907
H            6.19811930170767       -2.78486011281572       -1.43151991764287
H            3.85413688446112       -2.06776347462359       -1.50448638581685
