67
 energy: -13.025531914840 gnorm: 0.000391125553 xtb: 6.5.0 (97a52f5)
C            2.82507366041025       -1.54366690629989       -1.01052903116686
N            3.86036334988760       -0.72983967637090       -0.37258095855184
C            4.21811371128898        0.52531234179999       -1.03410216399958
C            4.45396180796492       -1.11560724631157        0.84351532390421
C            5.45834893329347       -0.34249852272932        1.43588366226915
C            6.02133003973180       -0.71187256591170        2.63156201763686
C            5.61211585424979       -1.86812691582991        3.30027629285631
C            6.20112495138040       -2.21911278542752        4.58305591650027
C            5.84504503838788       -3.26409945601307        5.39422408223904
C            6.57523657856223       -3.33435339327257        6.60201677458611
C            7.51884544251487       -2.35258345892964        6.74291344203943
C            8.37877620003545       -2.15589098143665        7.91760540727531
C            7.76010921456176       -2.06798035575680        9.15685147408466
C            8.44023987730296       -1.71798300369290       10.31761699619722
N            7.73156333730445       -1.59407255091082       11.54123668141860
C            6.47369223588004       -2.33557438420681       11.78219922033213
C            5.24723588038999       -1.43658072111807       11.58518371583038
C            5.35144665700836       -0.17515107284691       12.45946890382565
C            6.68389505001947        0.55377594928550       12.21548762998984
C            7.87008159002701       -0.39780983729913       12.40622703141956
C            9.82691020728080       -1.45046988768681       10.22405309293860
C           10.57015166057029       -1.14014909987577       11.37021235894305
N           11.20372955954416       -0.88376891548441       12.30993509157189
C           10.47676216912064       -1.55282558284961        8.99180255281028
C            9.78235768330637       -1.95192949039507        7.83561813376585
C           10.54891216851061       -2.18017449349631        6.59249320454744
C           10.13045730113990       -3.08460578701580        5.61470573452349
C           10.86945433517301       -3.29773349753470        4.47368953272490
C           12.05835123781011       -2.62473031825041        4.28624035934272
C           12.51302980502428       -1.75371706859338        5.25509682328458
C           11.78163888911861       -1.53244117147226        6.40975530941747
C           12.31600608597473       -0.66080896684021        7.50722602885176
C           11.94409810401737       -1.22833791000746        8.88902240419388
S            7.49824284007046       -1.32334911622239        5.33033008868848
C            4.61597811598336       -2.64737484071549        2.70416484029792
C            4.05319666957389       -2.28076429649277        1.50685353017560
H            2.51603633164119       -1.11373865026662       -1.96103246937441
H            1.95077934325886       -1.60810157062094       -0.36540962795667
H            3.20265700415835       -2.54659761505891       -1.20065029501343
H            3.61759980626145        0.68518060161981       -1.92725788119866
H            5.26613484241711        0.50763524902099       -1.32718736076892
H            4.05049055732407        1.36325872262188       -0.35993235949094
H            5.79152764287125        0.55520781088013        0.94671422501600
H            6.78869315803529       -0.10350830912053        3.07704025158378
H            5.06075993894894       -3.96248770963712        5.14920830168851
H            6.40488630432285       -4.08884135725009        7.35450437676545
H            6.69720088197788       -2.21215926521748        9.20003079918971
H            6.50167701833123       -2.71671000711444       12.80792753109512
H            6.44416211963147       -3.21886718017439       11.13558568749877
H            4.32252678166190       -1.98879927286546       11.80275307528472
H            5.17362689100816       -1.14157552120137       10.53198972430990
H            5.27814494082284       -0.45702753934594       13.51695912704830
H            4.50167654598360        0.49694080945930       12.27481421790540
H            6.77783516015899        1.43047155743696       12.87114454214127
H            6.70033074152424        0.94580774103117       11.19129811324116
H            7.93368676912709       -0.73278451807422       13.44582374487955
H            8.81500208326759        0.10487319214383       12.18304728372279
H            9.21423298148547       -3.62745313887821        5.76109858729975
H           10.51929062065688       -3.99150225676188        3.72675143151472
H           12.63774847497361       -2.78935863660786        3.39247291446454
H           13.45335687951691       -1.24602571501206        5.12403667241343
H           11.90649214637852        0.34956970905049        7.39290029491848
H           13.40391196882059       -0.56074744526018        7.40691612021413
H           12.22032096034927       -0.51949776046443        9.67853902231089
H           12.52167654011837       -2.13852520638554        9.08683450467586
H            4.28630601123764       -3.54659964238092        3.19331637003674
H            3.28508231133414       -2.89552108940976        1.07288156977686
