43
 energy: -8.855649826233 gnorm: 0.000464862067 xtb: 6.5.0 (97a52f5)
C            1.31235211514524       -0.40794838095677       -0.91684357841368
N            2.33897452961344       -0.06304917830563        0.06712385595205
C            2.37620527560505        1.32694393858840        0.52211750913794
C            3.23646732919429       -1.02655536462742        0.56530774986173
C            4.11946980456683       -0.72375863377770        1.60687216320546
C            4.98892195632549       -1.66645460481016        2.09700122118459
C            5.02459064894564       -2.96045569956716        1.57046522397899
C            5.95417328106129       -3.97605781409117        2.10311169849941
C            6.30159633164776       -3.99558351716886        3.45691595304922
C            7.15946730190136       -4.94588808255727        3.95333380287099
C            7.72026182120946       -5.91467196738649        3.11947011996202
C            8.61990347151300       -6.92004414868965        3.67329052137928
N            8.58143993023674       -7.32081908825410        4.95070535218265
C            9.52551546945526       -8.24245448079069        5.09572713867509
C           10.21013206619696       -8.43846811707937        3.89152835951577
C           11.29160728393292       -9.27974666773514        3.55322636427091
C           11.78364621162920       -9.21475381526588        2.28965847460006
C           11.22822872247733       -8.31757296396128        1.35151345041986
C           10.18703665146138       -7.51865752489913        1.68778374183443
N            9.64069662528677       -7.57947097479571        2.96549655266375
C            7.36491695573396       -5.90556943655207        1.76915967643041
C            6.50408109581334       -4.95737525194393        1.27319287179238
C            4.14571249009218       -3.26208058024522        0.52659371433515
C            3.27361490679521       -2.32127717648648        0.03771736165966
H            0.61150434449492        0.41284043005908       -1.05573354607029
H            0.74857293014901       -1.27634984965985       -0.58084962041964
H            1.77434933904460       -0.63206922103821       -1.87665331681359
H            1.71789992711938        1.95282261089969       -0.07695738877406
H            3.38635018846520        1.72268378978922        0.43467210735641
H            2.05762955044465        1.38906615309574        1.56104402848525
H            4.11040027698076        0.26287020023029        2.03450465894003
H            5.66840085385375       -1.40518118378556        2.88951800543346
H            5.87035322064289       -3.26610851706350        4.11998039173503
H            7.41382063850390       -4.95562004727767        4.99886150653510
H            9.73538733133855       -8.75353974217289        6.02332320758944
H           11.70717795702010       -9.94390842123326        4.29037243468905
H           12.61105946825446       -9.84160508253118        1.99988389326863
H           11.64733752007548       -8.26386801153203        0.36022903942348
H            9.79344679389823       -6.80445510689433        0.98900892845308
H            7.74042055389034       -6.67789322644515        1.12277007380821
H            6.25535877526154       -4.95792644292924        0.22630291399864
H            4.14264476440816       -4.25686117705038        0.11632012895331
H            2.60980329029855       -2.58119762309953       -0.76739674562477
