48
 energy: -9.845573038156 gnorm: 0.000875845624 xtb: 6.5.0 (97a52f5)
C            1.74210240302987        0.84690703797558        0.12580654518788
N            2.72969579390035       -0.23232585483774        0.10346135835085
C            3.04260931184679       -0.86707151729309        1.38417979461413
C            3.36795421189348       -0.62089288865682       -1.08556669959835
C            4.26809865529301       -1.69257764664601       -1.10763723516922
C            4.89529896555541       -2.06806688195994       -2.26900126249720
C            4.65900231049903       -1.39163857200900       -3.46897291079777
C            5.33984713070164       -1.78993371049466       -4.71676786513374
C            5.63009491470314       -3.12939680113789       -4.98556023534264
C            6.26347371938033       -3.49712481152827       -6.14773416435452
C            6.64325032034229       -2.54412439251231       -7.09666986867267
C            7.31500755418582       -2.96953869182042       -8.31056334183387
C            7.83448127099854       -2.14308922052818       -9.23568356943209
C            8.51332027512197       -2.53809078590899      -10.45476108185679
C            8.57639242846449       -3.89300737526963      -10.84474969299676
N            9.15997906479211       -4.34246537671133      -11.91012053461613
C            9.73884030623191       -3.37690100725705      -12.66498383544453
C           10.41630272777003       -3.73451351472423      -13.84792029209042
C           11.01264173462015       -2.79273215705203      -14.63506811673627
C           10.95979361687196       -1.44581350491822      -14.27899571034282
C           10.31258481656556       -1.06285996997725      -13.14133918821533
C            9.68587695751556       -2.00743356777745      -12.30105288586117
N            9.06241623995608       -1.58230238296440      -11.18039761991109
C            6.35184078408699       -1.20382537081701       -6.82782484316171
C            5.71496750749653       -0.83746374897628       -5.66692677610894
C            3.75895168042932       -0.32252256251223       -3.44873080109707
C            3.12860998665207        0.05221458829535       -2.28901942067604
H            1.28484851859296        0.94087940765042        1.10856971304194
H            0.95157361354606        0.64527118688086       -0.59455841067215
H            2.21852481029926        1.79340945016637       -0.12241554663016
H            2.52643594449700       -0.37253270965873        2.20443409283830
H            4.11234934187624       -0.81119890707993        1.57700558270100
H            2.73676073336262       -1.91152262942767        1.36782460473837
H            4.46836092542141       -2.23136467277449       -0.19893741720515
H            5.59698983003553       -2.88385282244307       -2.25796938393003
H            5.33448453931868       -3.88218259572778       -4.27568434902559
H            6.47646127518211       -4.53530418071775       -6.33739522584363
H            7.41008820087333       -4.03009445210885       -8.45095365774585
H            7.77557805414991       -1.08383368066673       -9.07184097831596
H            8.09840599171409       -4.63165542033797      -10.22430811851862
H           10.45447790371331       -4.77516196483091      -14.11749012327875
H           11.52702803233620       -3.08849128983826      -15.53467938694474
H           11.43334201339893       -0.70706593001729      -14.90458997080270
H           10.27030500117404       -0.02518614241453      -12.86093637312400
H            6.62322257635864       -0.44536666085914       -7.53975522929463
H            5.51537637155865        0.20185570993611       -5.47188294200510
H            3.54694130733039        0.19982901284165       -4.36534362930841
H            2.44180032635220        0.87936997945078       -2.30303299687664
