36
 energy: -7.131994821133 gnorm: 0.000678625564 xtb: 6.5.0 (97a52f5)
C            1.30495872155977        0.19431846099995        0.24773833408145
N            2.75585240147924        0.10106281147569        0.08381920840616
C            3.58062295867473        0.59225718446056        1.18794810033200
C            3.33204656261027       -0.42578187068233       -1.08689599047606
C            4.71918335859692       -0.45527988297487       -1.25995116242007
C            5.28021727307454       -0.95573863259404       -2.40795661851032
C            4.48500298504042       -1.45472098396336       -3.44201708578176
C            5.08869616651547       -1.97259503903541       -4.68503723269111
C            4.51185120628921       -3.05306770678141       -5.37501895856403
C            5.06538808172479       -3.52211539021667       -6.53404249772777
C            6.21618929116685       -2.94156344158957       -7.06507784117816
C            6.79551169308625       -3.43153027703825       -8.29957581546678
O            6.30132070540873       -4.36773262842666       -8.92051129340399
C            7.98767577161216       -2.76008068666292       -8.77062036926631
O            8.57431406922594       -3.19827082228793       -9.95279721205561
C            8.48774659363238       -1.72297800538111       -8.03695221296343
O            7.95981632279462       -1.24186868863707       -6.86976873959711
C            6.81866597691645       -1.85928731347980       -6.39228472720934
C            6.23524147897523       -1.39915818584658       -5.20802592058739
C            3.09956517074863       -1.43355447400929       -3.26686943179210
C            2.53712878290711       -0.93164047585840       -2.12015614786811
H            1.04642662772218        0.68421993988293        1.18376816460887
H            0.86655024608046       -0.80174375892104        0.25088829013512
H            0.87537128799285        0.77392107024001       -0.56701654450706
H            2.96489641255245        0.91392446098154        2.02483378293365
H            4.17730477155172        1.44002604617706        0.85718030167575
H            4.24171029602987       -0.19778790943933        1.53840203372656
H            5.35626081020286       -0.07652156656738       -0.48110340727772
H            6.35097842023192       -0.98165661544993       -2.51218093954272
H            3.63307763069240       -3.52416977016668       -4.97106218131707
H            4.62040431620943       -4.35011446876355       -7.05880017294602
H            9.35101270226845       -2.64753632013581      -10.17126863591586
H            9.37622309105751       -1.21329479757860       -8.37489843510675
H            6.68935325881557       -0.56061833498498       -4.71470282188606
H            2.46685962799147       -1.79726116569761       -4.05772895966357
H            1.46721492856450       -0.92510076104903       -2.01428686017825
