48
 energy: -9.150608539527 gnorm: 0.000646045218 xtb: 6.5.0 (97a52f5)
C           -0.20644008184952        1.16726830884844       -0.13481130012551
C           -1.47766644867716        0.68989977162621       -0.05000170541735
C           -2.71006784796784        1.49671562550097       -0.09100795016495
C           -2.71869486723714        2.76136383506737       -0.67852285016454
C           -3.87117349970432        3.51665111477311       -0.71176225602974
C           -5.03742762303019        3.02599882881763       -0.15923067456784
C           -5.04879755143299        1.77568296272363        0.42618141631312
C           -3.89803663356932        1.01754826778837        0.45959332143811
C           -1.41183108535682       -0.74545297241676        0.09135733653871
C           -0.11402294964907       -1.14759195675330        0.09982007083811
C            0.35398945200586       -2.53644095854410        0.26035292324756
C           -0.28205713222536       -3.58219885351786       -0.40930684048004
C            0.14598112452221       -4.88276876527200       -0.25386888379238
C            1.21205824427639       -5.16683022452852        0.57706823513680
C            1.84781141938702       -4.14591751647917        1.25614629211785
C            1.42354230818453       -2.84407673393223        1.10202832902669
C            0.71848433289622        0.05468711960616       -0.07181481605174
C            2.06274378113731        0.07527612522118       -0.20390020866354
C            2.90575126148644        1.30656650001486       -0.38900066702817
C            2.59421481207774        2.05883375497096       -1.70976041715494
C            3.51422617528105        3.28080257665304       -1.89015918046257
C            3.41854934175262        4.22976459412589       -0.67969899979690
C            3.74574915990765        3.49056490137396        0.63199813691166
C            2.82473329888295        2.27143410421643        0.82286932861019
H            0.05214442881695        2.20548960373397       -0.23020876852051
H           -1.81409502030426        3.14299279089559       -1.11921049998045
H           -3.86135598965546        4.49183206673518       -1.17090957543875
H           -5.93788310149365        3.61820204390815       -0.18412400562121
H           -5.95855022666836        1.39258801643439        0.85929731751254
H           -3.90767684749403        0.04785272159105        0.92608167007082
H           -2.25840290864901       -1.40110184486533        0.19687234848854
H           -1.11093715752201       -3.35821534563912       -1.05882276364883
H           -0.35264537725216       -5.67952123167583       -0.78181096063438
H            1.54543116464561       -6.18483380915563        0.69830682913158
H            2.67484251906853       -4.36824688865326        1.91096758733349
H            1.90389034178151       -2.05140757268687        1.64956830776792
H            2.57413557638780       -0.87128537933364       -0.18932815435947
H            3.95968727025362        0.98520542937391       -0.45824145645323
H            1.55066622278776        2.38666096406936       -1.70524019150470
H            2.67596764149866        1.37054062294627       -2.56112152838303
H            3.27640240672303        3.81291145365914       -2.82204705779056
H            4.55113799670477        2.94125764297628       -2.00445309987122
H            2.40208717914683        4.63848365445445       -0.62022112452693
H            4.07656355237822        5.10009181893256       -0.81227932892373
H            3.67420969292149        4.17120725335900        1.49206814009460
H            4.79058859802550        3.15677720714024        0.61009108714104
H            1.79204133444799        2.61005137316892        0.94877865835912
H            3.06591171235250        1.73136699874373        1.74775792947968
