46
 energy: -9.469667829870 gnorm: 0.000193955523 xtb: 6.5.0 (97a52f5)
C            1.51914694123010       -0.40093864595499       -0.86277651412454
N            2.64668406197001        0.06749780202120       -0.05737346483429
C            2.87513168822063        1.51201573567146       -0.02219586899104
C            3.47475048190301       -0.82814362823944        0.64634164856572
C            4.43969916214854       -0.36422615010108        1.54618016609521
C            5.24785551622199       -1.23689539427856        2.23123793215627
C            5.13728603658782       -2.61721401779628        2.04824193013892
C            6.01646697573044       -3.55365047327945        2.77605993900103
C            6.39095919560569       -3.30657376698595        4.11302257531579
C            7.20918455506855       -4.16596449226713        4.78154060846226
C            7.71389108952834       -5.32779454209978        4.15955199849376
N            8.52854549314269       -6.15824100992387        4.84174169162856
C            8.93704395885771       -7.19226173018630        4.16204311630478
N            8.68500550088555       -7.55931104255938        2.91153184618206
C            7.88693880627307       -6.76442189708468        2.22101660451445
N            7.57039162053115       -7.07296136455061        0.88959091373212
C            8.02740696723365       -8.14773237060877        0.10456259260344
C            7.59695220644555       -8.27207022544976       -1.21719567108959
C            8.04060159963176       -9.30800571004521       -2.00821890033077
C            8.92183053653866      -10.24283433680895       -1.49971429642827
C            9.35755767153694      -10.13703841424704       -0.19328801658635
C            8.91406002343698       -9.10212188244593        0.59677197877042
C            7.35003048290792       -5.59075426202745        2.82310331923967
C            6.49905290299340       -4.69060955392520        2.15934608526144
C            4.17504617940437       -3.08255900964300        1.14883464945734
C            3.36211582182491       -2.21085468816128        0.46773004099665
H            0.88222109190748        0.42911359867484       -1.16178678917597
H            0.91262427381236       -1.09806546071254       -0.28776519259830
H            1.88215039528853       -0.89867282316998       -1.75995251890046
H            2.27848530582423        2.01985259780644       -0.77731602972864
H            3.92270936009417        1.73014756387252       -0.22103824430713
H            2.60682410681597        1.90900368933717        0.95496522021329
H            4.54309940226893        0.69369832340642        1.70859954062476
H            5.99406156518175       -0.85826191315021        2.90801049851689
H            6.00654258637546       -2.43253404451682        4.60914824857667
H            7.48682559391060       -3.97217193895479        5.80256452469263
H            9.59283695789721       -7.86135273667602        4.70232136895920
H            6.93850650773365       -6.44350907827796        0.41122548423802
H            6.91187202778884       -7.54361787021132       -1.61441835416178
H            7.70046584682312       -9.38960514687449       -3.02766050143259
H            9.26899674615883      -11.05212507700636       -2.12097860628010
H           10.04521577454781      -10.86445221146229        0.20622921688847
H            9.25078184697541       -9.01697878561344        1.61114169189495
H            6.22479563605788       -4.86518839770171        1.13789452422351
H            4.06260814506947       -4.14332328302903        1.00588097638542
H            2.63217135360014       -2.59474193476025       -0.22226196315897
