52
 energy: -10.308064025720 gnorm: 0.000621682550 xtb: 6.5.0 (97a52f5)
C            1.07406459396944       -0.66290506352118        0.37414876551752
N            2.37439160094803       -0.02918285084838        0.15301976511382
C            3.11276075418506       -0.44059295066280       -1.04117796907384
C            2.88802722500958        0.93071099702330        1.04473656292240
C            4.05487590759585        1.64422541106810        0.74680378895699
C            4.55338832343977        2.57973955851503        1.61837802651746
C            3.91413093341197        2.84546677843597        2.82846716363250
C            4.44514184811939        3.85183396359790        3.75652940614181
N            5.54476788924282        4.52002073425487        3.34610649325383
C            6.04831666135035        5.42510130015234        4.16204699645105
C            7.28036806524992        6.11984504550952        3.73863293806455
C            8.35388021912667        6.33008117207411        4.61014238341329
C            9.49618610087618        6.95941211027683        4.18472025599570
C            9.62957354451796        7.40135757799620        2.86335205620943
N           10.79373641433220        8.06296578375968        2.43233538553098
C           11.86326243129178        8.41695899305841        3.36621036946223
C           10.97720150855541        8.45985617420727        1.03609608751811
C            8.56585466772190        7.16315856895291        1.98586502092266
C            7.42423620256136        6.53307481199755        2.41221500019560
C            5.41107761778190        5.71992080208836        5.39991771128918
C            5.81744761520705        6.75152818665911        6.26989653703863
C            5.15812584978023        6.97874213848962        7.44361953192664
C            4.06075858649434        6.19250575806258        7.79479827432133
C            3.62922581751526        5.20417194593174        6.95737010400400
C            4.28193609353685        4.95135872230643        5.73361017768345
N            3.80280494969014        4.00338017618588        4.89977451244809
C            2.75294880879134        2.13585245598871        3.13062912060721
C            2.24929310379551        1.20198504824098        2.26035995457512
H            0.76112153625534       -1.22873855110891       -0.50127896049239
H            0.31722530985234        0.09402428513032        0.57159803363402
H            1.12877353493133       -1.34252983723870        1.22255944469111
H            2.66306806887973       -1.32192096150009       -1.49437362959363
H            4.14041842342995       -0.68652489953646       -0.78000217862023
H            3.11354116987682        0.36295389765556       -1.77539405102928
H            4.56028609335630        1.46384657759311       -0.18506064719988
H            5.44831065324443        3.12611720447393        1.37758483937910
H            8.28789796209689        5.96081994174205        5.61902393556896
H           10.30890857687786        7.10526656829509        4.87348413433761
H           11.45689906757799        8.98183817029218        4.20319802519225
H           12.62029656553924        9.03075672237871        2.88233289920656
H           12.34289682183781        7.51589901525981        3.74369465311460
H           10.85148976126676        7.59839731222569        0.38287801243693
H           11.97357849981389        8.86445904829202        0.87057422533390
H           10.24864182864364        9.22210381729530        0.76587138648916
H            8.64369463268036        7.48450326462901        0.96268981133150
H            6.61578126935521        6.34992806620550        1.72593774561056
H            6.64047468661247        7.38406786935332        5.99031821144106
H            5.48089376325448        7.77013284398350        8.10016167394045
H            3.54787902476492        6.37384152203653        8.72509478036952
H            2.77423732003047        4.60380119586193        7.21419802212643
H            2.25494064365011        2.33491829591167        4.06311745008294
H            1.35633145208692        0.66168528096850        2.51912776199879
