43
 energy: -8.858912178544 gnorm: 0.000884627867 xtb: 6.5.0 (97a52f5)
C            1.41523678688912       -0.45567850883430       -0.74725664703521
N            2.48260744005734        0.00448807784206        0.14122746131388
C            2.70979844404294        1.44773800767130        0.20960615221134
C            3.25008350166221       -0.90128275880639        0.90423456323342
C            4.15628534713044       -0.44753563955000        1.86799406141965
C            4.90643284599648       -1.33021351593754        2.60485111309212
C            4.79652104437144       -2.70688633773084        2.40607195092540
C            5.60309667643096       -3.62966896044651        3.20190024020308
N            6.00616161012381       -3.36950767385715        4.44175604795984
C            6.70839595612490       -4.43542733250181        4.86920822542419
C            7.33586928042557       -4.50410129759706        6.19203533103751
C            6.79864885893357       -3.76633842390496        7.24668281005014
C            7.37429767992419       -3.79762535649961        8.49703499499856
C            8.50485243645461       -4.55923675172535        8.71925685317427
C            9.06184820342515       -5.28351509165519        7.68343936279533
C            8.48813515051924       -5.25512665204256        6.43189033763993
C            6.74227607914975       -5.41903833455063        3.84628727157409
C            7.28501123735769       -6.71764767790178        3.78301037818707
C            7.17169841389996       -7.41353009065140        2.61999661660427
C            6.52906163725334       -6.84232729544550        1.50371979509116
C            5.98739560187119       -5.60285324517404        1.58178474926882
N            6.05861730101675       -4.88587175206117        2.76902164203068
C            3.87976256354327       -3.16415296934463        1.45790624772761
C            3.12600513004720       -2.28255373897708        0.72345976110858
H            0.82125341771289        0.38037485097565       -1.10997190398382
H            0.75021865492470       -1.13299560897547       -0.21488468944371
H            1.83957322838071       -0.97371001796905       -1.60498183939540
H            2.16226019999272        1.96729747529352       -0.57412705767087
H            3.76810241587723        1.66690435381678        0.08054188143812
H            2.38070376035754        1.83279663461736        1.17290159288891
H            4.25890177021238        0.60900671727070        2.03952482101081
H            5.59711401773974       -0.96939215339560        3.34695765104202
H            5.92125144803349       -3.17017765526816        7.06596724156174
H            6.94401705721958       -3.22540650419974        9.30259455650603
H            8.95648201075625       -4.58225338428467        9.69751175832117
H            9.95269375791361       -5.86605203694556        7.85317968599211
H            8.95430373578659       -5.78094217255877        5.61838621329279
H            7.74792348538288       -7.15767297519590        4.64722492339847
H            7.57775460939140       -8.40917458565197        2.54668710345280
H            6.47138982763514       -7.39844683790114        0.58257509705424
H            5.52547914750272       -5.14567966935871        0.72655344670753
H            3.74000276394092       -4.22299910821572        1.33352074623395
H            2.43206546458843       -2.65833400237020       -0.00695054845142
