43
 energy: -9.005258762659 gnorm: 0.000826998509 xtb: 6.5.0 (97a52f5)
C            1.35929837788043       -0.55307849736565        0.70674091858491
N            2.50599073939290       -0.00925657003242       -0.02011089005952
C            2.82784495386005       -0.63546226622319       -1.30212344884370
C            3.25709340735122        1.07348008416250        0.48567241821203
C            4.22075747411794        1.71380594984696       -0.30011691724278
C            4.94904977871762        2.76808242811347        0.19275608009257
C            4.75876631862976        3.22417977045062        1.49759239048541
C            5.53239241253786        4.35981501353975        1.99819396310306
N            5.92164200149910        5.37581120732297        1.24123666831829
C            6.57793212486515        6.22038859871851        2.07473647570287
C            7.18398548525717        7.48221518157136        1.61365517543971
C            6.61833532406469        8.16534961434493        0.53743513498796
C            7.16655820349259        9.34286651365069        0.08029543448556
C            8.29791559119369        9.85848547091149        0.68183181941530
C            8.88275252612913        9.18722590681666        1.73799226695819
C            8.33634510103196        8.01017366664609        2.19899899028477
N            6.57713939177142        5.69640074886790        3.38039368455564
C            7.07682626761828        6.17464699905309        4.58154872013351
C            6.94981576501173        5.40958243737475        5.70622625981100
C            6.32281439970667        4.15071318909257        5.62406086846701
C            5.83019498993223        3.72625953497592        4.43777898247567
C            5.95283485670720        4.54678309309526        3.32084390607954
C            3.78480284687355        2.59970238416475        2.27815344327293
C            3.05403859161436        1.54717078198003        1.78581680065859
H            0.76651246627833       -1.20334535090508        0.06613083720867
H            0.71523283962401        0.25429794255352        1.05049314219476
H            1.69983434401959       -1.12834514017300        1.56583206303998
H            2.31808738894430       -1.59146488653262       -1.40597829527421
H            3.89857777697444       -0.81816876821758       -1.37260762246820
H            2.52076404669913        0.01186498609261       -2.12160747531543
H            4.38048081647146        1.38341258416902       -1.31084572978761
H            5.68255864392696        3.25797505247128       -0.42381312772859
H            5.73900719324894        7.75687356880367        0.07076560716278
H            6.71281039777643        9.86171879673022       -0.74827744827221
H            8.72726813760154       10.77987044489766        0.32354231064390
H            9.77282558849591        9.58332847826938        2.19915514343818
H            8.82051940889519        7.47020171806743        2.99301378478691
H            7.53447612926303        7.14693225197434        4.63686676351467
H            7.32945360233284        5.76210559394464        6.65085593379248
H            6.24150329100032        3.53190329208285        6.50269574099780
H            5.37864584011165        2.75695102714192        4.32801131218895
H            3.58567003845669        2.98126947625319        3.26368053941222
H            2.31644512062827        1.07540769129435        2.41009737507922
