32
 energy: -6.730246393961 gnorm: 0.000769460249 xtb: 6.5.0 (97a52f5)
C            1.28958668667649        0.31637969068529       -0.44599336417306
N            2.58245344222343       -0.23828838249670       -0.04753049407993
C            3.04286086279306        0.08712992558349        1.30137120572965
C            3.34387588092166       -1.04856912511163       -0.91662857856973
C            4.43584744308115       -1.78313966557724       -0.44591337326078
C            5.17368123063201       -2.57204186008113       -1.29222289693403
C            4.86368867935597       -2.65583554731916       -2.64869926552116
C            5.66249531945107       -3.51473808631861       -3.52599113936076
N            6.23824874189323       -4.63592252489395       -3.11745653134346
C            6.88897881882441       -5.15441366568588       -4.17739969218848
C            7.62042296566892       -6.35473838285437       -4.12902666646632
N            8.22483976090451       -7.34490115265706       -4.08652433993719
C            6.73446217538161       -4.32365742370668       -5.28997735587954
C            7.25591037456715       -4.47037921478324       -6.57823810732553
N            7.68403247961991       -4.58220370527787       -7.65209681500714
N            5.95747388136290       -3.27506893058489       -4.86642230630452
C            5.62743537870792       -2.09441631318122       -5.66276341400674
C            3.76619929454739       -1.93589414724053       -3.11976967624405
C            3.02534606320019       -1.14863646146004       -2.27398402959761
H            0.72186533665542        0.63237152581673        0.42678007735316
H            0.70456495967294       -0.43637380034250       -0.97014636819898
H            1.43868663527264        1.17613524472344       -1.09585769736953
H            2.50644214669992        0.94920800255812        1.69232775985418
H            4.10278521057085        0.33199667640360        1.28657591362642
H            2.87655453681450       -0.75892206676859        1.96481514773629
H            4.68816643962980       -1.74408288787647        0.59861026356411
H            6.00762067477697       -3.14025454990498       -0.91777736250385
H            6.40872586900978       -1.91786122108490       -6.39811038339548
H            5.55284450908879       -1.21643266970697       -5.02549211831031
H            4.68586305305729       -2.24753232053880       -6.18469533230960
H            3.48331619669373       -2.02663224830086       -4.15334765906395
H            2.19218495224019       -0.59114471201562       -2.66303540051213
