59
 energy: -12.455903704477 gnorm: 0.000650754031 xtb: 6.5.0 (97a52f5)
C            1.42383526110253       -0.25967739747652       -1.33355881471874
N            2.85448477488082       -0.16841123605284       -1.62635174991763
C            3.43329705653522        1.17445293905892       -1.65426258002230
C            3.62771666486052       -1.31008712681049       -1.89156172793140
C            4.95931757544541       -1.20121200181869       -2.30976204416717
C            5.70677307105908       -2.31585964612859       -2.58884759455777
C            5.15824380187002       -3.59667374787213       -2.47234858161828
C            5.95627033300334       -4.81095243853940       -2.75213821629861
N            5.97166833829226       -5.73498752016661       -1.78275766482846
C            6.76341170663302       -6.78520358256168       -1.93562807238042
C            7.57894336635185       -6.99997340231444       -3.05597306658913
C            7.60271518417038       -6.01327714486572       -4.04807340142145
C            6.72532532994754       -4.93425273225168       -3.93206059974486
C            6.64558041970268       -3.96146023281927       -5.04613079051632
C            5.46818684831109       -3.28803997313704       -5.37021674143323
C            5.42335792614647       -2.39335109207012       -6.41216143578752
C            6.55095838981492       -2.15211762991541       -7.18639366209477
C            6.51067466157956       -1.23347737676148       -8.24687793143811
N            6.47792869492572       -0.47188938699627       -9.12291274531019
C            7.71592699162239       -2.85335387706202       -6.89964041628361
C            7.77221221741317       -3.75661822642526       -5.85494516472473
C            8.99640330234757       -4.58492079208629       -5.60299473413157
C            8.60714642090915       -6.01378587558422       -5.17359431113064
C            8.39677725288215       -8.23655256321463       -3.10642032134561
C            8.73034581996593       -8.87129977610460       -4.30297077520301
C            9.49803756792211      -10.01183464081093       -4.31551951116174
C            9.94442140728595      -10.57920054985411       -3.12932080879134
C           10.73200877683715      -11.74096506148523       -3.14007874695743
N           11.38349318588656      -12.70219968206222       -3.15011079444909
C            9.56799999196757       -9.98851756672562       -1.92976154991880
C            8.79276658888532       -8.84411176388272       -1.90364228840428
C            8.28022838536132       -8.28710510066118       -0.60819073540106
C            6.84815042697491       -7.74978778504088       -0.78537160697292
C            3.83970095085546       -3.70957629009392       -2.02787707619900
C            3.09037622474920       -2.59526912304259       -1.75091271057469
H            0.95804936335471        0.72328045895236       -1.35206938052017
H            1.27303282126375       -0.69514557528801       -0.34783246852748
H            0.92831222203765       -0.87828839070019       -2.07906733553170
H            2.73355024154234        1.90908294536016       -1.26157948463869
H            3.68618191248428        1.44943811583134       -2.67628932587212
H            4.33146152544315        1.20664767527882       -1.04085528175749
H            5.39796409562698       -0.22664473339864       -2.42646360024705
H            6.73048180061458       -2.21724791772778       -2.90616412540468
H            4.58003157581940       -3.47828310808185       -4.79463678085614
H            4.51111822623498       -1.86830586929311       -6.63876138707764
H            8.58488459183145       -2.69362502295359       -7.51272158818491
H            9.59724497741482       -4.10728028133452       -4.82079160000477
H            9.62495556229602       -4.60469102797270       -6.50160734987741
H            9.50267341082939       -6.56887961929076       -4.87017314711041
H            8.18061100476919       -6.54302680670624       -6.03282201704509
H            8.34320176844318       -8.49020155134500       -5.23019961197570
H            9.75581595598515      -10.48447245911411       -5.24807836836732
H            9.87501979626036      -10.44333549971260       -1.00480675826226
H            8.94580837588332       -7.48277849749727       -0.27491334108331
H            8.31564936551828       -9.05762123600580        0.17148787931925
H            6.49893448587444       -7.25077672704849        0.12616698447096
H            6.15432514642967       -8.57836304536202       -0.96491897515312
H            3.41714891376266       -4.69249365929356       -1.91152554367705
H            2.07700794378430       -2.70923876367438       -1.41034842020848
