57
 energy: -11.398786960896 gnorm: 0.000542453769 xtb: 6.5.0 (97a52f5)
C            1.95743176723973        1.53288802140109        1.02266414192113
N            3.30990242115142        1.23198435655427        0.55136595644684
C            3.90870848905059       -0.02037061846338        1.01510344061453
C            3.99874035467564        2.10273442414703       -0.30941597268317
C            5.27490900055393        1.78499053062143       -0.79079832791534
C            5.94876813723736        2.63779129321471       -1.62775454566336
C            5.38885767844546        3.85609826818057       -2.01637517339532
C            6.11233012900114        4.74620222321911       -2.94892300113689
N            6.72122403720246        4.14674829623374       -3.98392380266973
C            7.17863243046100        4.92018543750330       -4.95810551605189
C            7.00886640942706        6.31366469596105       -4.99536675431379
C            6.56523548552532        6.94801304791319       -3.82898310625036
C            6.13683208513235        6.15165670248901       -2.76656205125445
C            5.75192972562403        6.80989622432836       -1.49212524858738
C            5.85543270607092        6.16475798113269       -0.25966021861183
C            5.50203040414014        6.79781380358880        0.91067408313082
C            5.05664322498137        8.10256921489424        0.88181307734101
C            4.98945303145579        8.77853469948470       -0.31908486141393
C            5.34334428201827        8.15375854005411       -1.50331740257945
C            5.40068757765441        8.91435524391420       -2.79622504382933
C            6.61005101026731        8.44055110716899       -3.62185588609318
C            7.37832635864659        7.03078650490236       -6.24077312752184
C            6.65958851326206        8.12729194949114       -6.71825258323422
C            7.02830799222927        8.76307567904733       -7.88348688075368
C            8.10029211237827        8.29737704317317       -8.61656332467220
C            8.77902668111690        7.16977018633782       -8.20104142885105
C            8.41796362363468        6.51866302063902       -7.03301417456887
C            9.02585442393558        5.19961754956360       -6.64993713471816
C            7.94694628198759        4.26063965450831       -6.07260657794885
C            4.10630401911270        4.16733520437141       -1.55443922332988
C            3.43088803093929        3.31572016455956       -0.71818253138096
H            1.56596535678404        0.72601725345679        1.63918817992532
H            1.28703265427079        1.66533335000080        0.17516943900071
H            1.96324330009956        2.44437617366491        1.61786323550017
H            3.26061821700267       -0.52707075289792        1.72757060984119
H            4.85948906915664        0.17864216048133        1.50660435785706
H            4.07708490521674       -0.68876096513130        0.17242798479223
H            5.72987991579887        0.85339635292468       -0.50523020150849
H            6.92545175687171        2.37761740038394       -1.99745586340010
H            6.22576041901948        5.15576420338425       -0.22552402642202
H            5.57553515417600        6.27374673624903        1.84978219231554
H            4.78006867123303        8.59924901745641        1.79759458391895
H            4.67604785292891        9.80835129563013       -0.34181966541961
H            5.44961416251139        9.99296898471421       -2.60181389958248
H            4.47335360542609        8.74411918107596       -3.35536478552868
H            7.53223369069407        8.67976846631399       -3.07818047838544
H            6.69036154177190        8.98842643401247       -4.56388952051901
H            5.77027997767687        8.44253626701957       -6.20031420349860
H            6.47064000285851        9.61823816907965       -8.22966924623926
H            8.38667518716711        8.79410886750641       -9.52929010190709
H            9.58316049438382        6.77316659389615       -8.79723256142956
H            9.81469449555638        5.36862142931311       -5.90787440109620
H            9.51661006254573        4.74563046487526       -7.51965911327721
H            8.39343483451742        3.33143981348362       -5.69948598452257
H            7.24494622829918        3.96563171758804       -6.86040465526373
H            3.65218225573378        5.09220097170925       -1.86619106962781
H            2.45014776374577        3.58438996367188       -0.36856760555265
