46
 energy: -9.310021274917 gnorm: 0.000951582900 xtb: 6.5.0 (97a52f5)
C            1.09849171209634        0.59667434286225       -0.22177472605623
N            2.47763828913118        0.24063767940912        0.10989708095956
C            3.10390797470667        0.98585164333835        1.20169201821905
C            3.16538011999440       -0.77534545600097       -0.58175761533214
C            4.41315167589809       -1.22991692200678       -0.14352337395976
C            5.08295598680794       -2.21798063319719       -0.81898295166714
C            4.53880945559626       -2.80310525502065       -1.96195072373616
C            5.23604075821050       -3.84590561063084       -2.70752690041402
N            4.93396016318025       -4.15905442164356       -3.95464127769477
C            5.78796993966760       -5.15212366902764       -4.32494384841009
C            5.89890657311895       -5.84433350121360       -5.53801388402312
C            6.84087099687375       -6.83175670123427       -5.65886341445965
C            6.98030746095731       -7.59164148323291       -6.97367150758539
F            5.96804018235211       -7.24607174817413       -7.79133125479154
F            8.16072406209258       -7.26447937781137       -7.53066617112091
F            6.93814591570171       -8.91113836122896       -6.71312456525610
C            7.68707500740401       -7.15132612319581       -4.58843595042938
C            7.60043898864615       -6.49061407509061       -3.39089992340221
C            6.64781396686491       -5.47902514199907       -3.25960734441793
N            6.29173575480987       -4.64038654927888       -2.21031838854142
C            6.83693651315754       -4.71044862256021       -0.87813638508672
C            8.15136359180162       -4.33447316875532       -0.63383813430224
C            8.66538774980313       -4.38830034498369        0.64238417011970
C            7.87501561005389       -4.82104438872706        1.68863619119106
C            6.56868230774799       -5.20271595549937        1.45583963356583
C            6.05232533863798       -5.15003113876393        0.18065301430224
C            3.30003250088503       -2.34455775501202       -2.40747115292183
C            2.62614485555677       -1.35772119646325       -1.73323301644151
H            0.66578304824092        1.23131071039030        0.54833252785864
H            0.48907720853214       -0.30142106703550       -0.29721367238621
H            1.07047637925470        1.13172653571887       -1.16862276351109
H            2.51632351298773        1.86484857814189        1.45739194386067
H            4.09530617368756        1.32138455391466        0.90471884414865
H            3.18622604341050        0.35399370177294        2.08364859222162
H            4.84960599836602       -0.80471752168149        0.74223566381513
H            6.04755401610410       -2.54187651148576       -0.47408831328411
H            5.24853516259322       -5.60999475756006       -6.35954489915056
H            8.41043719443626       -7.93676129676452       -4.72588570499463
H            8.24178256644312       -6.73416358032295       -2.56296651729894
H            8.75652452240261       -3.99374445874579       -1.45578897355325
H            9.68549015576522       -4.09289245876650        0.82475843224834
H            8.27845568391511       -4.86235928775908        2.68712933884235
H            5.95240965716560       -5.54174125336196        2.27214209549734
H            5.03553821621354       -5.44375786908082       -0.01375805485184
H            2.87970640994852       -2.78119846152582       -3.29669866822635
H            1.67613459877998       -1.01632162070694       -2.10305946953822
