46
 energy: -9.652795837884 gnorm: 0.000921838252 xtb: 6.5.0 (97a52f5)
C           -0.35954229070770        1.24562334676848       -0.18796412663911
C           -1.60408750930877        0.70919433463772        0.06563769779861
C           -2.86734235089005        1.45492041242545        0.16535200457388
C           -2.95916372948700        2.77699434556203       -0.27169275273882
C           -4.14283717545888        3.47496725296714       -0.17152827898804
C           -5.26060489179340        2.87051505693512        0.36752427379638
C           -5.19094212882019        1.56340376393346        0.80573430085912
C           -4.00895762075901        0.86245042816302        0.70606791161744
C           -1.44719704340189       -0.69751493923067        0.20337092418203
C           -0.12458880069671       -1.02593540761883        0.04123672042290
C            0.43496085459283       -2.38688077556062        0.12449876024736
C           -0.25085689329509       -3.47079360251709       -0.42477668620901
C            0.26448328419193       -4.74573376242232       -0.34428272873275
C            1.47026034655253       -4.96687559063751        0.29105861216916
C            2.15906182341096       -3.90835948207299        0.84947578063555
C            1.64767861128734       -2.63191766041566        0.76956883807151
C            0.60060522331082        0.20276479615304       -0.21062919514791
C            1.96447670620105        0.28505156214634       -0.50482762501857
C            2.75107328601739        1.43434546375029       -0.62672329758506
C            2.44332199284229        2.75450733621811       -0.29862738776932
C            3.47079919219473        3.65505475754656       -0.55440106007323
C            4.61776375238603        3.07828948469634       -1.08368312038444
C            5.81846853562137        3.77017565412334       -1.44559705653050
C            6.04037199346387        5.12149155776376       -1.33814785575766
C            7.32492012816095        5.52506223384077       -1.77358781236691
C            8.09249070306899        4.49884491670085       -2.21726313396132
S            7.24625038697587        3.00116989770321       -2.10457695668565
S            4.38900062604551        1.36801348445048       -1.24270135096028
H           -0.17131141659194        2.28145945704316       -0.39739796474495
H           -2.09459837829030        3.25240066460084       -0.70025687464923
H           -4.19654926325672        4.49512957301374       -0.51531363205324
H           -6.18578102166931        3.41779890907097        0.44655036955486
H           -6.06257686144756        1.09090815709799        1.22851795228218
H           -3.95814253295980       -0.15247173886680        1.05910480051656
H           -2.23639957304173       -1.40091852505083        0.40361057850460
H           -1.18743926584833       -3.29629624255457       -0.92562443282879
H           -0.27396710116329       -5.57214493658471       -0.77880101528786
H            1.87195663242796       -5.96506414782666        0.35463538195776
H            3.09599435056703       -4.08222846053222        1.35302225211567
H            2.17210150435008       -1.81174218046831        1.22854760682992
H            2.47418560561202       -0.64589401736339       -0.68172710250599
H            1.52004677362965        3.05172218331421        0.16867939259263
H            3.38876214723141        4.71160520050629       -0.35214181822050
H            5.30347626540128        5.81136662957427       -0.95781066091058
H            7.65993239490410        6.55249059226367       -1.75678861736576
H            9.09434272844246        4.58946001676584       -2.59265161461543
