32
 energy: -6.525538679066 gnorm: 0.000694907000 xtb: 6.5.0 (97a52f5)
C            1.18410585069112       -0.85599119265690       -0.18112556242462
N            2.41280221815310       -0.08895088403848        0.02247988542234
C            2.84637874794193        0.76030083356300       -1.08641239911132
C            3.12998612061862       -0.14962813044778        1.23451099625223
C            4.17355143575819        0.74241019129282        1.50260149697762
C            4.87397526128196        0.68109712182926        2.68191848838533
C            4.56330290156087       -0.27482726784387        3.64850642296358
C            5.29139016763996       -0.35474190968749        4.90983302332970
N            5.05401242596600       -1.27137424441508        5.83785765226967
C            5.92459016270207       -1.01467269001627        6.85217145108083
C            6.11726536511191       -1.65348920340370        8.08008827885971
C            7.08342557085751       -1.13229338533020        8.88702327560675
C            7.82043699146543       -0.01734098805675        8.47175045036227
N            7.68222088768895        0.62148737585679        7.33436692758467
C            6.72868758223062        0.10836300233224        6.53472655657840
N            6.30926860332289        0.51386317338048        5.29090733762037
C            3.52624159984623       -1.16759746511494        3.38423303744846
C            2.82388026173494       -1.10736091612917        2.20667064397453
H            0.64050919249829       -0.49427476146034       -1.05163177326774
H            0.53265663509251       -0.75696198443069        0.68485683441683
H            1.42100639021128       -1.90724075552015       -0.33221413124207
H            2.33682558332401        0.48369596575428       -2.00736021319588
H            3.91639367535393        0.64703987575584       -1.24958098630079
H            2.62581277411048        1.80311503288079       -0.86654138380528
H            4.42099033386671        1.49677792203438        0.77738477498290
H            5.67211407858044        1.37679706595661        2.86802723073374
H            5.52368948597113       -2.50614208763293        8.35700415668703
H            7.27986707957981       -1.57720095114270        9.84858920938987
H            8.57970068456511        0.36924325874002        9.13549368470257
H            6.66921171792478        1.32143187795862        4.78860637883043
H            3.28655837999432       -1.91172693119291        4.12341087255360
H            2.03749183435568       -1.81633694881620        2.01925738233247
