32
 energy: -6.266381075270 gnorm: 0.000773300326 xtb: 6.5.0 (97a52f5)
C            1.33038815931614        0.01400035187272        1.04831855089655
N            2.43106631341805        0.02339709436173        0.08495303543534
C            2.71659130293192       -1.23621310551556       -0.60150343700510
C            3.16352258206063        1.19590103863005       -0.18872436322661
C            4.09612302093043        1.23935542628815       -1.23003265998845
C            4.80255930210473        2.38537733369934       -1.49752306331559
C            4.61411794375282        3.53914407177419       -0.73890128742465
C            5.36870837941569        4.74896731537496       -1.04729868800526
N            6.22345812151483        4.84579482843429       -2.05741224664578
C            6.70778196620134        6.11672472181404       -2.01747966472760
C            7.63694144744999        6.80935108609493       -2.81656945558166
N            7.88546068682152        8.05868538475647       -2.49822436027127
C            7.29004644363707        8.62902344846728       -1.47561237293848
C            6.42245810689342        8.10552827553586       -0.66544535644941
C            6.12547069045702        6.82555652932453       -0.94121205017382
N            5.27599837880737        5.93951663281892       -0.33228047504931
C            3.68834527776345        3.50015498174549        0.30295921187615
C            2.97927793372549        2.35549835664613        0.57150848916390
H            0.75860170978091       -0.90902833039850        0.97830771319603
H            0.65357085363646        0.84305692197812        0.85076570186548
H            1.72041161269618        0.10307071999959        2.06035355324961
H            2.18913864907813       -2.06412803703603       -0.13210615713299
H            3.78244882926102       -1.45207642266978       -0.55964367321828
H            2.40434140324870       -1.17278035054380       -1.64210815548436
H            4.25229621961550        0.36546107033160       -1.83669284974140
H            5.51433850231881        2.40973929792477       -2.30392075876677
H            8.10823088463791        6.31903933404233       -3.65116427616377
H            9.40710939677614       12.17041956381872        3.47785713752850
H            5.92796505351497        8.29628232666446        6.26049814944907
H            4.70980837924168        6.15709805517515        0.48206948948619
H            3.53050108630651        4.38044547872349        0.89954474213360
H            2.27832136271002        2.34544659971323        1.38695957708293
