47
 energy: -9.967910343736 gnorm: 0.000784821280 xtb: 6.5.0 (97a52f5)
C            1.33419989916114        0.06815614108475       -0.30403141350871
N            2.60694111231823       -0.26672802720309        0.33485905206400
C            3.00770637382753        0.55815540628855        1.47482435006452
C            3.41182251722248       -1.32316926118418       -0.13187380350724
C            4.54248525850062       -1.73935037889807        0.58009713448708
C            5.32687867085289       -2.76797356439415        0.12326552587076
C            5.02826980192480       -3.42311673065264       -1.07140159237535
C            5.86684522755929       -4.52671707980249       -1.53169838785392
N            6.57406451744438       -5.28304381507550       -0.71406052777504
C            7.18317821271774       -6.23791921962222       -1.47389731345164
N            7.99003821545352       -7.20445756955643       -1.05278369648817
C            8.43360769695097       -7.98305172837312       -2.05325049143738
C            9.29791757531575       -9.05912990849434       -1.73928310021070
C            9.78331013745689       -9.88904724673018       -2.70303965494452
C            9.43556159754439       -9.69322970623640       -4.04233923580786
C            8.60769724256889       -8.67098538800215       -4.39412178185729
C            8.07660590200855       -7.78285545271999       -3.42928777202545
N            7.26356531380168       -6.79577106582784       -3.84251397316177
C            6.83553081648830       -6.05397867174997       -2.84019437402782
N            6.00064898434972       -4.94034372063327       -2.87185350560709
C            5.54320712147271       -4.31420670538957       -4.08114541724493
C            4.98688302341047       -5.07850326483785       -5.09913364505958
C            4.55710797100780       -4.48554680790288       -6.26516264842725
C            4.68247919938720       -3.12051004988662       -6.43410996966668
C            5.24509892407899       -2.35097466592731       -5.43476457792280
C            5.67640068713053       -2.94302359407336       -4.26892061582351
C            3.89299484053647       -3.02096653542353       -1.77640711635596
C            3.10494872278244       -1.99533392448883       -1.32029247744483
H            0.76673312428339        0.77108672651208        0.30240226922696
H            0.73081108797557       -0.82897478777748       -0.42890627063000
H            1.51290256772281        0.51826593962690       -1.27868069339506
H            2.38808735929860        1.44973834053981        1.54691449411828
H            4.04169067651474        0.87819238962681        1.36121873369210
H            2.90804584052210       -0.00831291555764        2.39888948932496
H            4.79038491461293       -1.25380437124748        1.50694906601697
H            6.18990103904115       -3.08433968292267        0.68274517359672
H            9.56507212577056       -9.20888893718193       -0.70804098230615
H           10.43936264572287      -10.70084132409933       -2.43513221149713
H            9.82546774197947      -10.35594032374554       -4.79739505719975
H            8.33848384401827       -8.51854075292250       -5.42446048783677
H            4.90497909827872       -6.14234015359029       -4.96117025547771
H            4.12590367740495       -5.08793361154636       -7.04798917117755
H            4.34614668951258       -2.65682752455410       -7.34693812291898
H            5.34889026377742       -1.28654234773343       -5.56815263923487
H            6.12582064234252       -2.35308124155953       -3.48937091018158
H            3.63393009530848       -3.53688088314370       -2.68384243493332
H            2.24148100264023       -1.69679200301205       -1.88742895968586
