49
 energy: -9.803726737208 gnorm: 0.000388902999 xtb: 6.5.0 (97a52f5)
C            1.53983223534462       -0.06909621321667       -0.80430185529101
N            2.61437390900549        0.35669107504202        0.09221070637766
C            2.81830775711436        1.79756051510003        0.23980106208155
C            3.40997814205787       -0.57716085274340        0.78668886852788
C            4.30154974914912       -0.16737944381439        1.78363854101776
C            5.07278446023204       -1.07852949868061        2.46089227421912
C            4.99985116761752       -2.43950753566231        2.16631145366196
C            5.82292008617614       -3.39646528072514        2.90229115136579
N            6.27438103677491       -3.17916858009507        4.12470887546258
C            6.96797714686157       -4.29023082700419        4.49485178383729
N            7.59918915027857       -4.51533065059332        5.66058834632476
C            8.18029711176396       -5.68609833187000        5.67832342681355
C            8.16617583452909       -6.60725434789751        4.62837462308419
N            7.56298847613460       -6.42450083852820        3.48213858644621
C            6.95339536933871       -5.23635177600574        3.44222406083412
N            6.22352518726215       -4.65299223732941        2.41609392108230
C            6.07057598937400       -5.21652965984570        1.10070652372424
C            6.48771140498985       -4.51336970561097       -0.02246179244081
C            6.33425479092697       -5.04555067411812       -1.27948486606088
C            5.76351838131684       -6.30786397770639       -1.46114718617613
N            5.60435216243942       -6.85611845538335       -2.75432599525250
C            5.96413029038421       -6.09914414211076       -3.95305871880170
C            5.06484088865385       -8.20109771721687       -2.95166063637004
C            5.35661409290600       -7.01081516365636       -0.32395379326757
C            5.50886669163887       -6.47467628647171        0.93194540212747
C            4.10523572323989       -2.85261728144068        1.17881354350945
C            3.32929001741219       -1.94456858192568        0.50416523585749
H            0.90403388513008        0.77089260308297       -1.07640495084415
H            0.91741625286833       -0.81514400875661       -0.31401447730989
H            1.95916198081687       -0.49474411273010       -1.71382530155779
H            2.26566754804766        2.34838911979138       -0.51852699350682
H            3.87339005892002        2.03945854084754        0.12737047301966
H            2.47886369754879        2.12415982151148        1.22080383478036
H            4.37265378875810        0.87656537998884        2.03102512980198
H            5.75088160034203       -0.75274047820097        3.23023481755479
H            8.71014595184414       -5.94196798382414        6.58450862469584
H            8.68600386173755       -7.54647347763668        4.75244175068188
H            6.93018794970174       -3.54155287328439        0.11036099552796
H            6.65965590568166       -4.48345463268463       -2.13626654640619
H            5.39540613476490       -5.17201761983735       -3.99216697026905
H            5.74982445830351       -6.66719283945822       -4.85584340551964
H            7.02718240723252       -5.86635179010305       -3.94274561360236
H            4.03958713146174       -8.24855927220974       -2.58973006089925
H            5.66885901214383       -8.92761137697786       -2.41146346413586
H            5.06768669638534       -8.47515869706016       -4.00452307942601
H            4.91530081319494       -7.98498377564224       -0.43435372676500
H            5.19543446352109       -7.02129462087942        1.80401160534954
H            4.02349019189708       -3.90126017511003        0.95567209496042
H            2.65697895678194       -2.28660126131085       -0.26209827883270
