34
 energy: -6.891816881409 gnorm: 0.000686535982 xtb: 6.5.0 (97a52f5)
C            1.80684724325267       -1.24389080479194        0.05966371125903
N            3.23867336450980       -1.26844926610488        0.36094199940828
C            4.14654488878163       -0.89850214628835       -0.72459341053474
C            3.71973960813494       -1.66904531831557        1.61998199442719
C            5.09170792692018       -1.80807260587628        1.85940353775977
C            5.56020060619201       -2.21981888394625        3.08070321510449
C            4.68044423673078       -2.52238291444366        4.12513360632536
C            5.16207459802364       -2.95560278930722        5.45284747411512
N            4.62801541809423       -2.39238368770635        6.52099922518618
C            5.13027554416249       -2.77760734116335        7.69148250010712
N            6.06844533851694       -3.63347820762413        7.96991013886226
C            6.60404621396495       -4.25361870710680        6.89315552465590
C            7.59968129330283       -5.23593575926698        7.06550323481778
C            8.11915570619380       -5.90651945875248        5.99600896434361
C            7.66286974936298       -5.63153524301114        4.70641759280433
C            6.70644510925530       -4.67998383379078        4.50550927097776
C            6.16815771586488       -3.95465498090700        5.58908566160972
C            3.31278108337639       -2.35219918890957        3.89804879379609
C            2.84295750073541       -1.94302990942736        2.67610759633802
H            1.63230762434613       -1.06863325097601       -0.99974942986206
H            1.31982888218227       -0.45111261678011        0.62404674844558
H            1.35421638300339       -2.19853036172257        0.32055104217251
H            3.59776163896123       -0.50094908872544       -1.57580068015016
H            4.70903196375064       -1.77028106975433       -1.05386926316320
H            4.84116617922968       -0.13167392219976       -0.38666794592404
H            5.78913007464044       -1.59077072349192        1.07050121802647
H            6.62019678898276       -2.28717682167670        3.25544414523447
H            4.68968529348926       -2.29115489337853        8.55090403554587
H            7.93625488465497       -5.45343967181654        8.06385924236241
H            8.87662668196187       -6.65803112160632        6.14651250970945
H            8.06599549078334       -6.17715837501602        3.86902967307203
H            6.33620580259984       -4.49712008046467        3.51298563652848
H            2.62820715446601       -2.55586849845845        4.70300605568566
H            1.78488201156461       -1.82224845719000        2.52787638096235
