42
 energy: -8.724053586546 gnorm: 0.000867051552 xtb: 6.5.0 (97a52f5)
C            2.35692541628215       -0.28158445645432        0.60213252057358
N            3.51549096782360       -0.38089387800406       -0.28420187233174
C            4.46540761216007        0.73003346703171       -0.25037443298822
C            3.70514817947113       -1.49345228845252       -1.13552157318712
C            4.66949531333791       -1.47123328398177       -2.14679840528783
C            4.84703214497006       -2.55022073901868       -2.97846126609162
C            4.06808115398143       -3.69109648827087       -2.83262651552397
N            4.24867731844673       -4.81911355503248       -3.71373571449072
C            3.36920963804609       -5.36481121644703       -4.67348121835217
C            2.08455353804154       -4.79180636270331       -5.06156420676772
C            1.70852523514089       -3.49213013104109       -4.75559634128021
C            0.48819454472355       -3.02333220783140       -5.17305173622342
N           -0.39297955258432       -3.72577801954254       -5.86891020306294
C           -0.02337605940283       -4.96326679974006       -6.16344569057306
C            1.17200000682188       -5.53129790271258       -5.79843831766430
N            3.85181293109836       -6.47425276772347       -5.20889051627162
C            5.06810537083229       -6.68647104089392       -4.63202709387838
C            6.01162966616690       -7.70379800980545       -4.84522102342698
C            7.17774244790451       -7.68605541356756       -4.12515943011609
C            7.43931178703847       -6.67599442408367       -3.18787901123089
C            6.53545730556630       -5.67038025906334       -2.96300607227974
C            5.34445530948288       -5.67206041211432       -3.69256350050973
C            3.11326782434115       -3.72774909696644       -1.82386168926777
C            2.93241865919046       -2.64908849751687       -0.99259754891569
H            2.22582588868695        0.73978597368293        0.95413648978828
H            2.48944430627054       -0.93215822352416        1.46448442114059
H            1.45205513217743       -0.57130576827478        0.07137682296572
H            4.31820679142626        1.33708430344580        0.64076684931634
H            4.33338212570543        1.36108828761522       -1.12718198959319
H            5.48569719025430        0.35173303829960       -0.23252317897383
H            5.26985678421293       -0.58973231028976       -2.28376550046598
H            5.58625691139369       -2.52508692830955       -3.75999808281581
H            2.37656386058246       -2.85644102153871       -4.20498969119997
H            0.20531102469075       -2.00996575501373       -4.92981642536637
H           -0.72681820915650       -5.54879895880026       -6.73645667130421
H            1.41511752331376       -6.54185831249025       -6.07655391762960
H            5.80603318794411       -8.47557440813367       -5.56494781193810
H            7.90847596533471       -8.46261595147858       -4.28033492935709
H            8.36549410509078       -6.69172718915627       -2.63746816566858
H            6.72451143299039       -4.88859933568997       -2.24932334854697
H            2.51652300682143       -4.61572954493028       -1.70894330249783
H            2.19474621337910       -2.69651411148571       -0.21170070870005
