40
 energy: -8.427052765597 gnorm: 0.000918546798 xtb: 6.5.0 (97a52f5)
C            0.93592241806521       -0.23308234228583       -0.68431717469074
N            2.30983379778788        0.00732224218053       -0.24428304466288
C            2.78968598114926        1.38659930320409       -0.31209186074205
C            3.11582249495092       -1.03522304486409        0.26517810894744
C            4.35005228450515       -0.76680098067432        0.86280810395865
C            5.13026915167288       -1.78194046595351        1.35954132255468
C            4.70554862865300       -3.10254370675324        1.28522278271202
N            5.52019899383062       -4.16406717317934        1.81519123502030
C            6.02243080242509       -4.34405130926570        3.11528345522396
C            5.67756248342636       -3.52397971989231        4.27174599173780
C            6.48232172357043       -3.50884959406720        5.40034567555160
C            6.12289719830317       -2.73752983845555        6.47720189961352
N            5.03375635705100       -1.98653675887705        6.53716783468806
C            4.26525005448042       -2.01505152838515        5.45922110875510
C            4.53013700737582       -2.74694253056179        4.32937087422685
N            6.85751046444742       -5.36545251352096        3.17659384405431
C            6.91821813187853       -5.90580642791989        1.92936415077651
N            7.64400482856879       -6.96215902826640        1.52540031865833
C            7.48234750015059       -7.20232734255686        0.25077977231276
C            6.66273258300125       -6.46646838495637       -0.60810052552226
N            5.93848762022491       -5.43822311918059       -0.24989557172894
C            6.08433589862405       -5.17523023546646        1.05157282349813
C            3.48427942096697       -3.38141829161168        0.68702022487610
C            2.70296689124253       -2.36813241772867        0.18754021204136
H            0.40713868627469        0.70561541249168       -0.83583825596209
H            0.39674065808363       -0.80456730415685        0.06850862803731
H            0.93673856309797       -0.78505993122604       -1.62215053291848
H            2.14856029846395        1.98907144349613       -0.95193104732941
H            3.79477916610209        1.41405669337559       -0.72699916583425
H            2.79892849328538        1.82580829828662        0.68309477009186
H            4.68766106825236        0.25048630489350        0.94668864042129
H            6.07963536384423       -1.56888242016604        1.81904276669397
H            7.38080069412665       -4.10078880448221        5.41606347232461
H            6.75833138022250       -2.72665834191217        7.35041727256532
H            3.36939895710285       -1.41293816245416        5.49655405852775
H            3.85023964672213       -2.73445457370844        3.49703066129790
H            8.03777962011464       -8.03776826107323       -0.15065147467692
H            6.60661494707995       -6.75219161108428       -1.64886258465051
H            3.16343574134678       -4.40625914336032        0.62069096788293
H            1.76520399953077       -2.60431438988040       -0.28249973833039
