37
 energy: -7.625116078840 gnorm: 0.000758387422 xtb: 6.5.0 (97a52f5)
C            1.53360875850700       -0.61743710719152       -0.40620803202587
N            2.81531084067131        0.07049705617683       -0.25105352985061
C            3.49244447098443        0.47851443965417       -1.48201121041895
C            3.35118375340320        0.35288326668893        1.01449935841059
C            4.51220616168625        1.12276906927531        1.15625043568034
C            5.03153873092261        1.40082644635266        2.39331768262263
C            4.42240059715568        0.92613234373608        3.56233262020375
C            5.01198625510238        1.25370710757734        4.83638198502643
C            4.60938325787946        0.89803106283558        6.08955885114141
C            3.48469329631017        0.10571069629919        6.34040189339913
N            2.54372177318622       -0.54923008464308        6.52928257284279
C            5.37209680034863        1.35227047486606        7.22751699314840
N            5.08384205345211        1.05759079421483        8.46602656600464
C            5.97986221514132        1.62492724181747        9.35380115657277
C            5.93892583847493        1.49278968689715       10.74993113584274
C            6.89344498053513        2.11143474811942       11.51693169776340
C            7.90256432008190        2.86980863018183       10.92610573864518
C            7.96069935641578        3.01125026507872        9.56037086665153
C            7.00130329732776        2.38961066300963        8.77465151961777
S            6.80578736920004        2.37648468775562        7.05196893761600
C            3.26325690963081        0.15470767428086        3.41738012416254
C            2.74186529291805       -0.12305406730982        2.18219975989824
H            1.20007285508611       -0.59287914972564       -1.44134912509330
H            0.77269131001190       -0.13305379791488        0.20235047834543
H            1.63014161369358       -1.65683492697731       -0.09925132237296
H            3.03166093726315        0.01630212676313       -2.35235437977998
H            4.53613429934929        0.17220038180946       -1.45477104654657
H            3.43862057191535        1.55939015024535       -1.59545107946099
H            4.99852525849808        1.51013434914830        0.27904043887997
H            5.92463327234553        1.99621628101076        2.47662212210123
H            5.89500560231405        1.86546375334736        4.78430314364582
H            5.15728246670759        0.90623834403968       11.19840929912818
H            6.86395408494852        2.01074557173380       12.58938767717506
H            8.64266971552496        3.34858412222048       11.54584371802070
H            8.73453201903293        3.59390065481219        9.09158966097104
H            2.77100481509317       -0.22851788536760        4.29059112548070
H            1.85486484887344       -0.72585507082974        2.10475216654579
