50
 energy: -10.474762570479 gnorm: 0.000621765598 xtb: 6.5.0 (97a52f5)
C            2.19395822612374        1.30844713772901       -1.24794240222660
N            2.60191900045367        0.13181752141871       -0.47865230196477
C            2.30119092890725        0.14808290047807        0.95380841081958
C            3.23529072472134       -0.96084186905155       -1.08450578460248
C            3.53152321810955       -2.12145550280344       -0.35805570991158
C            4.14749139251128       -3.19084953161580       -0.95324016081190
C            4.50443224456899       -3.16303713663379       -2.30670028307406
C            5.14468207297358       -4.31503950732103       -2.89386367430918
C            5.55617673993326       -4.41476034602901       -4.17341992030746
C            6.19978926617046       -5.54320631107364       -4.80966318524338
C            6.47967675951309       -6.74131405745586       -4.17678503326276
C            6.14864784174938       -7.03082963150843       -2.86322239016518
N            5.86927056399505       -7.26891413337179       -1.75737230918973
C            7.16320520181340       -7.75169945247916       -4.83847043265899
N            7.74642515593728       -8.60333955128643       -5.37934611211254
C            6.57885774866328       -5.36079026207453       -6.23554832112976
C            7.55456121300089       -4.43621418659127       -6.59045483086761
C            7.94925563578531       -4.21704310408576       -7.91712320383666
C            7.35272376443200       -4.92915525545337       -8.92085655062658
C            6.35060852358525       -5.86021822019013       -8.58425042647139
C            5.80597777801054       -6.51137036165793       -9.71017341760086
C            4.81295286697338       -7.42990863257673       -9.51997016815989
C            4.36405149641635       -7.69430172194920       -8.21280606033877
C            4.89773113999128       -7.05681418978811       -7.12151354359448
C            5.93045384608156       -6.10747293198153       -7.27491770573192
C            6.50074415307472       -5.98923635650129      -10.94398249731386
C            7.52847544751927       -4.93936256916136      -10.41980149167886
C            4.21173224672133       -2.00193778982725       -3.03329144277370
C            3.59410300949377       -0.93230253449378       -2.43847824757701
H            1.60560632397433        1.99110330120234       -0.63851094946930
H            1.58438367388850        1.00640204220109       -2.09731200793101
H            3.07250090078569        1.84116511790259       -1.60656827952974
H            1.92824652535379        1.12152029511450        1.26481210439423
H            3.20105026724883       -0.06446162789614        1.52742809852541
H            1.54437522582181       -0.59940075165840        1.18358652015813
H            3.26243606508295       -2.17596330099526        0.68149339575729
H            4.36321824905716       -4.07391475643735       -0.37671511753519
H            5.29179787719295       -5.14914480992670       -2.23590704475805
H            5.40128719820243       -3.56772638003701       -4.81619902305852
H            8.03014048599318       -3.87597447675864       -5.80429134021837
H            8.71375413070408       -3.49790149588523       -8.15319497583059
H            4.38278173193924       -7.93760426055090      -10.36521896532114
H            3.57860572178801       -8.41777079092161       -8.06893513347800
H            4.53708232448175       -7.27603029718944       -6.13211966833843
H            5.77117712584429       -5.54214708673302      -11.62841475426654
H            6.99006834266718       -6.81074097497981      -11.47900101576269
H            7.33963742719053       -3.94091636036120      -10.82965478626131
H            8.55839611365962       -5.21039730499743      -10.67748009524459
H            4.47197301743534       -1.94432758634495       -4.07468062279111
H            3.38613306448715       -0.05135090741346       -3.01905714235067
