36
 energy: -6.976944973494 gnorm: 0.000296551794 xtb: 6.5.0 (97a52f5)
C            1.33167303260949        0.59057492376999       -0.31840680771963
N            2.65990332799564        0.05121399219029       -0.02513274486136
C            3.28028862726692        0.48430089249901        1.22720237006378
C            3.30096144814648       -0.84350565905826       -0.89488299407815
C            4.50114008477436       -1.46840234135064       -0.53548319415146
C            5.12984766582909       -2.33768572716826       -1.38883613011593
C            4.59739447686779       -2.62804465455565       -2.64933917411774
C            5.29457631968492       -3.54548234135437       -3.52627799232305
C            4.95920451399307       -3.83245881856714       -4.79084051431406
C            5.72647837575341       -4.78012282172957       -5.58471089980401
O            6.61040969652311       -5.44566113016416       -5.06981394801021
C            5.41859330785057       -4.93969805445984       -7.02402822842715
C            5.81531233475653       -6.10553839601929       -7.67464800803782
C            5.56009110570385       -6.28887022225368       -9.01240327860128
C            4.90509357508865       -5.30197520814525       -9.73373714106259
Cl           4.58246321268986       -5.52834699149447      -11.41252572480282
C            4.51362465968894       -4.13069427920609       -9.10233984251588
C            4.76846855753888       -3.94984248839242       -7.76400577766774
C            3.39622034069836       -2.00718010185647       -3.00861661827356
C            2.76484701525671       -1.14030826717681       -2.15391689967860
H            0.92090413602970        1.10736389302386        0.54627144251774
H            0.65051767223612       -0.21636357456910       -0.58077178932056
H            1.38958107609519        1.29428628253827       -1.14630318188297
H            2.73553754095258        1.31826268169042        1.66435681555944
H            4.30176732146471        0.81140068431772        1.04455709860566
H            3.28882030854855       -0.33598077917145        1.94193784012810
H            4.93045889773903       -1.26906503586097        0.42993592706212
H            6.05273831487635       -2.80649255927944       -1.09313559508455
H            6.16616313904438       -4.03432530512778       -3.12750095684154
H            4.09890441845260       -3.37252351543185       -5.23625502689733
H            6.32875884500112       -6.86262232491437       -7.10730909857646
H            5.86252736046693       -7.19145455069296       -9.51552528371115
H            4.01466883235670       -3.36958398884738       -9.67776258697534
H            4.48542583532830       -3.02794594683748       -7.28812530945417
H            2.95696921870880       -2.21591595415402       -3.96751483281888
H            1.84741540398331       -0.66964231219165       -2.45878191380794
