60
 energy: -11.074273622304 gnorm: 0.000861422730 xtb: 6.5.0 (97a52f5)
C            1.75492241205694       -0.06901840666159        1.23870470882486
N            2.05359104567579        0.11479143722037       -0.18212714910102
C            1.79250908085951       -1.02364246677314       -1.06269408476894
C            2.56138877463027        1.32695756052745       -0.67650680937529
C            2.75974235531095        1.52310511017949       -2.04826462633132
C            3.24819531183793        2.70936950346906       -2.53090888482816
C            3.56740378438747        3.76688862817738       -1.67007029513099
C            4.07243611125318        5.00338823580097       -2.21664365058294
C            4.42171603583816        6.09597667365387       -1.50456859966344
C            4.91328759768086        7.28481264469163       -2.10912386367288
C            5.25417534268307        8.38964984197740       -1.41885550529695
C            5.70640257143651        9.60653457030228       -2.02966015994064
N            5.68273190269767       10.74836687632529       -1.39887399362758
C            6.12897967503482       11.79164685803499       -2.23497270118267
C            5.18428990749279       12.97168546539566       -2.20802114440467
O            5.06914992922902       13.64992368595543       -1.20856271190945
N            4.48724949034779       13.22438130890756       -3.36237276302837
C            4.63443494070721       12.52015383742039       -4.55523493832096
N            3.82716750677974       12.89183159790521       -5.61655665205332
N            5.50454520040985       11.57603726449307       -4.72386468762161
C            6.34311751447201       11.17996469372133       -3.65626081344676
N            6.17947230941353        9.74325524436169       -3.36172763255401
C            7.20224433227182        8.85707193236077       -3.96960339647467
C            8.49679812731689        8.79854184346977       -3.12015405598952
C            8.76656214336403        7.29719052308005       -2.92726209277484
O           10.12493873918372        6.92166999398372       -3.10214790854728
C            7.85986210234819        6.62168570031352       -3.98684223783442
C            7.47301467171011        5.20557413713954       -3.56900670722133
O            8.62761469857426        4.41092323639650       -3.36345399759474
O            6.74333050428013        7.50873323766461       -4.20325453841566
C            3.37314247737419        3.56926344541295       -0.29719130801627
C            2.88332786400695        2.38268887846211        0.18458086059956
H            1.26277569903437       -1.02283378495116        1.41507554553001
H            1.09161142776364        0.72070028884800        1.58547722322860
H            2.67543163065253       -0.04518610329415        1.81831796213645
H            1.52041784948509       -1.90741450590757       -0.48995577269307
H            2.68304649629053       -1.25970043027366       -1.64156422577538
H            0.97499373235501       -0.78852304035559       -1.74117326123024
H            2.51607562906146        0.73219928115441       -2.73457302411497
H            3.38960254725222        2.84010290228185       -3.59000154671422
H            4.17436858096598        5.05179626320246       -3.28654438748047
H            4.33128650790869        6.08496468645984       -0.43418145810421
H            5.00434294375084        7.30623200308448       -3.17973553052783
H            5.12157412268214        8.39680961099882       -0.35216466768881
H            7.09578366598619       12.13226132329167       -1.82880060706020
H            3.82987842818870       13.98654705833375       -3.34089279069677
H            3.32480077089473       13.75880317158658       -5.62683757660866
H            4.02366268153635       12.54453367140247       -6.53378327262576
H            7.37994931824540       11.35622992832145       -3.97909933983520
H            7.41955601649031        9.25482668145157       -4.97139637877946
H            8.36036890836769        9.31601082480903       -2.16655026269660
H            9.34474839813270        9.26504515957794       -3.62910929046851
H            8.44946543662249        6.97627491326286       -1.92236859129254
H           10.16042712569347        5.94358043990052       -3.16889487198376
H            8.41317765846137        6.57913959916907       -4.93596239536870
H            6.83880318383205        4.74618155814779       -4.33645885043636
H            6.89499010041927        5.24444489539140       -2.63946554554813
H            8.38891727700027        3.49691860387389       -3.11550105729175
H            3.60989104426417        4.35923083989837        0.39230489088561
H            2.74817835799301        2.25702106697824        1.24383142358081
