39
 energy: -7.862821321197 gnorm: 0.000607127990 xtb: 6.5.0 (97a52f5)
C            1.34476384232673       -0.03781610591015        0.73992591027137
N            2.60975138119855        0.05804057964674        0.01035393488593
C            3.17646485046167       -1.19557116760173       -0.48743479817905
C            3.24135610488564        1.29030700702903       -0.20955703036889
C            4.38151174437321        1.38660224397549       -1.01749562708506
C            4.99786758043735        2.59200894076877       -1.23157066217734
C            4.51393456343060        3.76941036020851       -0.64743608027739
C            5.19873215075460        5.01977453033886       -0.88802363357115
C            4.87277256304446        6.21343394327098       -0.35138280242100
C            5.59698101623375        7.41315487852530       -0.62363918128523
C            5.29719311191434        8.59945639699114       -0.05956036103809
C            5.99599584010188        9.84844133219814       -0.29414355936506
C            5.63961551099232       10.98599537998762        0.43634171890863
C            6.27929659181704       12.18648763722428        0.23746875419559
C            7.30026328903601       12.30162735079530       -0.70029826970353
C            7.95131872845411       13.52712793936948       -0.90624690404567
N            8.49161935593570       14.54062956996267       -1.07946458803632
C            7.66060605928271       11.17413133141283       -1.43160971560833
C            7.02373032446438        9.97140922122441       -1.23405143432425
C            3.37240492510086        3.67407674254565        0.15863497879187
C            2.75348922434139        2.46883166092812        0.36977312530677
H            0.93190725318124       -1.04247968134863        0.67719068334080
H            0.61609599505151        0.65095071024599        0.31677058539291
H            1.49980814642002        0.20564847376860        1.78922967820125
H            2.64516907235175       -2.05434426148368       -0.08201235169869
H            4.22045651521487       -1.27745845143895       -0.19070891205185
H            3.10935244600717       -1.22950247835741       -1.57321363651533
H            4.77248210327016        0.50031573832667       -1.48418201699630
H            5.87245190916501        2.64312017002704       -1.85723652474197
H            6.04792793957697        4.98385697326690       -1.54774320038735
H            4.03744650904396        6.28211526655198        0.32080297199355
H            6.42530247228249        7.34601151346062       -1.30476421113479
H            4.47406478343302        8.63096389291238        0.63260522603381
H            4.85266628786403       10.91195937631379        1.16721457771646
H            5.99578279312098       13.05465626996193        0.80785584265223
H            8.44982434404235       11.25778447640636       -2.15932730537151
H            7.31876116877954        9.11731551829324       -1.81661489091925
H            2.97151743231313        4.55944510555327        0.61823013926492
H            1.88240407028354        2.42360161463895        0.99860957034830
