56
 energy: -12.257598301066 gnorm: 0.000746330112 xtb: 6.5.0 (97a52f5)
C            0.56522573813507        1.79318985432669       -0.46948935520385
C           -0.77497716743049        1.50619851403151       -0.39525215851746
C           -1.87692196019588        2.45392089340768       -0.61141627655310
C           -1.63018940150132        3.75595033927631       -1.04998208183933
C           -2.66401408772108        4.64551483504815       -1.24563753406776
C           -3.96715536360127        4.25723875712024       -1.00762654223031
C           -4.23316090117884        2.97415311357325       -0.57383377501196
C           -3.20147989429036        2.08214319956501       -0.37724282603559
C           -0.90267962267464        0.11820127653664       -0.07035545208645
C            0.33934593294992       -0.43947582921579        0.06331615821636
C            0.61656371310262       -1.84433398907565        0.40400309386243
C           -0.20976360659622       -2.86552112601788       -0.06691909587423
C            0.04245076322128       -4.18169853426516        0.25232007399599
C            1.12025432050308       -4.50656872189761        1.05217049421751
C            1.94406095714391       -3.50952283662585        1.53557195657703
C            1.69508495016961       -2.19230114119026        1.21833399285109
C            1.31406157527074        0.61378877801433       -0.18423864599951
C            2.68925297693892        0.46045811902688       -0.26833847272236
C            3.66500902710001        1.50733106310131       -0.43772124738961
C            4.77881363039875        1.25613391200149       -1.26684068212414
C            5.69811925511683        2.22385696955782       -1.55996934530151
C            5.58210891607407        3.51600797657209       -1.02496217214115
C            6.50935022137063        4.54849580538542       -1.34310596554351
C            6.39651745325711        5.78674252105361       -0.80479235582235
C            5.35143807469839        6.09743475842092        0.11590608381353
C            5.22177977307740        7.36129692605327        0.69815215736575
C            4.21152343768863        7.62315318698626        1.60078940433622
C            3.31040584702532        6.64083996856822        1.95385061771846
C            3.39500212907483        5.36051806154640        1.39824641930939
C            2.50238668154388        4.31089970644733        1.75978965756880
C            2.59870916840224        3.08401151424909        1.19266872963417
C            3.57063271693127        2.78733177778392        0.19480571983341
C            4.51918594979901        3.79137471883970       -0.12955679295426
C            4.41948150291702        5.08614696549775        0.46007999679456
H            0.99087722422629        2.74462817133644       -0.73311516155917
H           -0.61824593619117        4.06740772490839       -1.23924990571798
H           -2.45499755443201        5.64692772285456       -1.58548217105163
H           -4.77512702459025        4.95416208295206       -1.16047832029806
H           -5.25026673092938        2.67015743747768       -0.38651910787290
H           -3.41681875833001        1.08613065452921       -0.03298199340252
H           -1.82994155064942       -0.41100597607150        0.06170783593545
H           -1.04598199575906       -2.61314868014313       -0.69581075272308
H           -0.60230975054187       -4.95952331478888       -0.12309184469733
H            1.31662591620494       -5.53685211653455        1.30093023127576
H            2.78093905440002       -3.76218212881699        2.16617508113324
H            2.32158496874337       -1.41484954895067        1.61957767335013
H            3.05668783278553       -0.55070983344997       -0.32528272544116
H            4.87460066687946        0.28011533781008       -1.71109971634212
H            6.52114516789534        2.00641723752403       -2.21890841364913
H            7.30938540957454        4.32833411360071       -2.02867384404831
H            7.10501193527756        6.55591895635209       -1.05944266608456
H            5.92528503877139        8.13236418414400        0.43514782986258
H            4.12925231755190        8.60446615178455        2.03895068003876
H            2.53143370317100        6.85092080347852        2.66634192466926
H            1.74892219781121        4.50684062757478        2.50302399528756
H            1.93736516148904        2.29980905879040        1.51497759265357
