37
 energy: -7.198337816159 gnorm: 0.000984198573 xtb: 6.5.0 (97a52f5)
C            1.35209874249669        0.87571274769707       -0.20322890429384
N            2.60038019624684        0.14153216549239        0.00909271808209
C            3.14214912114013        0.15277263763010        1.36858768029956
C            3.23002901432599       -0.55672705552284       -1.03174142328383
C            4.34398621434495       -1.37091483979844       -0.79001361060826
C            4.95712203441383       -2.05324642108439       -1.80890061302403
C            4.49467578100784       -1.95939022191231       -3.12776185790127
C            5.17008936562744       -2.69172026451366       -4.17621537500573
C            4.87377235842967       -2.63859856216426       -5.49098492285392
C            5.58143064355086       -3.38599577567466       -6.48023221429220
C            5.31415431293986       -3.30383048524390       -7.79863579051641
C            6.00483497301832       -4.03457444485501       -8.84211859100938
C            6.96283075063643       -5.01216868008863       -8.59077355366775
C            7.56955604948551       -5.65292420233629       -9.64261849987302
N            7.31879719666386       -5.41710474205894      -10.92189552744050
C            6.40480410656453       -4.48657525323837      -11.15474133075847
C            5.73426289005125       -3.78527502417221      -10.18383342290398
C            3.37965302952496       -1.14671124574243       -3.36981012702981
C            2.76483168376391       -0.46609928377851       -2.35012623157399
H            0.93189735535419        1.21504828980891        0.74164686778748
H            0.61695571719745        0.23335320173880       -0.68565776046134
H            1.53229347980680        1.74630766140804       -0.83202608138170
H            2.65278145464473        0.91045629211937        1.97763582094511
H            4.20668806292164        0.37944201253532        1.34776955081946
H            2.99319073383657       -0.81810709710874        1.83820135498768
H            4.71606333998307       -1.46994850056547        0.21406775448246
H            5.81156246273131       -2.67431503300076       -1.60058086428778
H            5.98413610287434       -3.32656179894866       -3.87244595745874
H            4.07673463934101       -2.00216818361105       -5.82899322258638
H            6.37097614510773       -4.03195462102027       -6.14181081668937
H            4.53285742139794       -2.63426132014004       -8.11341477609920
H            7.22094295471519       -5.27204706634108       -7.57953437200573
H            8.31001464181476       -6.41160678018571       -9.43510780134445
H            6.18871584959849       -4.27980191779409      -12.19251685584883
H            5.00442022579737       -3.03991664256031      -10.45085098997584
H            2.99519636273564       -1.05671747521454       -4.36988492802102
H            1.91513458590731        0.15701793024329       -2.56531532520029
