60
 energy: -11.316904476737 gnorm: 0.000528213044 xtb: 6.5.0 (97a52f5)
C            1.75374717884414        1.64724224742116        0.28907076683810
N            2.52119362416258        0.42294207311376        0.05593393477406
C            2.60557059960172       -0.52437622655406        1.16854766526985
C            3.13740845119233        0.16690715273966       -1.17585034752927
C            3.81288066387157       -1.03772119907275       -1.41291050589281
C            4.40881302921685       -1.28981136305667       -2.62110371897674
C            4.36713211894696       -0.35264825525928       -3.66164464403017
C            5.00027690708508       -0.66267708498301       -4.92361847804339
C            5.07999872254962        0.16364376035634       -5.98650327758023
C            5.68569656959395       -0.12929899434931       -7.25447926361468
C            6.12391306583112       -1.31687559988779       -7.72514022700708
C            6.07681043071080       -2.67611680137308       -7.08551908262663
C            6.54971011255057       -3.68154470735954       -8.15476534073014
C            6.97299228812289       -2.86462516412111       -9.33914645359785
C            7.51135026241149       -3.31428863893051      -10.49001034421848
C            7.76065671293370       -4.68901984322365      -10.77809569000978
C            8.32140009077305       -5.10799454399013      -11.93070597319915
C            8.58362039187955       -6.48277878994689      -12.29013980080926
C            9.23178857431657       -6.77098535468041      -13.49810746902100
C            9.48842441827937       -8.06298350186055      -13.87656759193722
C            9.10812431885665       -9.14307823409575      -13.06879023605898
N            9.36065072312210      -10.46487763091568      -13.45881053083123
C           10.10926875297565      -10.77630976802381      -14.67725423817168
C            8.86414922142829      -11.60292283329176      -12.68375753088141
C            8.46006430640960       -8.85471271226622      -11.86005413787496
C            8.20576869493717       -7.56199986275284      -11.48055138329783
C            6.70264030903246       -1.45143116803884       -9.06643006716359
O            6.91845805974504       -0.53161052334303       -9.83885578743798
C            3.69296976580879        0.85258522215137       -3.42479056358381
C            3.09502450477703        1.10403724200262       -2.21692450181873
H            1.29867085078755        1.64494837474017        1.27739359138527
H            0.95824999713905        1.73499712669353       -0.44868756500092
H            2.40516046452904        2.51616947349618        0.21620211567575
H            2.14153882495385       -0.12005750712220        2.06582678447411
H            3.64748669693299       -0.74062078137675        1.39726291742526
H            2.09783574428107       -1.45156851428272        0.90925766357850
H            3.85689893744405       -1.77847224352018       -0.63466617234167
H            4.91974199727192       -2.22366631438273       -2.78282033156028
H            5.45415014967405       -1.63189491994294       -4.98977691942756
H            4.66443316785940        1.15058080046907       -5.88031987257110
H            5.78810254860903        0.70067076940262       -7.93465832145336
H            5.06134286244045       -2.90299906485331       -6.74022817490077
H            6.73859849659121       -2.69957816564315       -6.21207672782681
H            5.74674792410387       -4.36920209874754       -8.44542709535978
H            7.38424532678216       -4.29651409873918       -7.79751875105656
H            7.76356093491516       -2.58784383007276      -11.24204574699961
H            7.48374699626025       -5.41075931770323      -10.03238212362618
H            8.60051049830692       -4.35957203317409      -12.65173173257351
H            9.52961579536736       -5.95587150298493      -14.13537066161834
H            9.97965206651443       -8.25349237002997      -14.81395704858564
H            9.53257731344592      -10.48719705601474      -15.55393229659651
H           10.32587922986059      -11.84059571797086      -14.74345932304613
H           11.05696984227233      -10.24102698384955      -14.68167080696735
H            7.78969602952903      -11.51362991188012      -12.53437919150841
H            9.35687950358934      -11.63806329955437      -11.71390131230205
H            9.05538763268191      -12.54230868798919      -13.19853904892220
H            8.16139966029737       -9.66411782124644      -11.21813366536483
H            7.70235353135623       -7.37608830573262      -10.54882840339875
H            3.63451115682698        1.59207658424100       -4.20295588646863
H            2.58516294943799        2.03819852132157       -2.06279107398954
