56
 energy: -10.537328827680 gnorm: 0.000674428994 xtb: 6.5.0 (97a52f5)
C            1.34995850663314       -0.57604516335417       -1.34183512521649
N            2.34038786858930       -0.09927933384330       -0.37537694710793
C            2.53023774320693        1.34954403355231       -0.28891985800023
C            3.07134790901478       -0.98598458011650        0.42717047922747
C            3.94745949486119       -0.51586106708121        1.41431189785293
C            4.66186304440530       -1.38356953850137        2.19851992397246
C            4.54705646724555       -2.77066216046433        2.03889507635454
C            5.31867176536173       -3.64989780877159        2.88781760008426
C            5.40027746981289       -4.99104955172307        2.76478057552699
C            6.14873018676027       -5.87662286838717        3.61129881458448
C            6.68271865645974       -5.61992670646884        4.82546403247592
C            6.60432135316395       -4.37076609988412        5.65550912339416
C            7.14093118772843       -4.74412303226123        7.05046901330578
C            7.76881265059583       -6.09975846869687        6.90785065884203
C            8.59245607108403       -6.74928553319317        7.75386368306809
C            9.04343164475829       -6.32684402365623        9.07016602313901
C           10.22632758880168       -6.86519937719605        9.59060957461423
C           10.69032601077273       -6.50382670502298       10.82920856907873
C            9.98954787831169       -5.58958757171349       11.62528562573208
N           10.45960913081745       -5.22072203918663       12.89423717027101
C           11.76720788660018       -5.65672316547740       13.38611522924057
C            9.67068699449800       -4.37325289045191       13.78919104464825
C            8.79787086587008       -5.06295996446655       11.11204074772114
C            8.33769527676869       -5.42266738146716        9.87108342877903
C            7.42514070319445       -6.63222372765365        5.58296595456549
O            7.71866590315427       -7.74413063952636        5.17570004368115
C            3.66895542568560       -3.24160191780358        1.05390598175755
C            2.95136790111457       -2.37351444703857        0.27188796289370
H            0.80490769125371        0.25349080540314       -1.78784878987501
H            0.62877099755791       -1.22501695254585       -0.84849612748409
H            1.84194423775589       -1.13055019602482       -2.13883659539769
H            1.97217816787916        1.86631753234604       -1.06711859393651
H            3.58324319618019        1.59685346609372       -0.41120069438865
H            2.18857566199941        1.71401118118116        0.67805305989330
H            4.05447920110739        0.54403010054618        1.56229109653074
H            5.32876436656010       -1.00042657093204        2.95213809972584
H            5.89487712589863       -3.16946634541379        3.65465830173815
H            4.88175787952164       -5.44765461564600        1.93963006439910
H            6.28886081446050       -6.88138635174114        3.24738761941026
H            5.57434523681349       -3.99785261007986        5.70154900229318
H            7.22226785027648       -3.58704743651720        5.20262794988032
H            6.32137346589103       -4.79102051766639        7.77643709830437
H            7.86994872253905       -4.01383782691514        7.42118008528549
H            8.99750840380719       -7.68008458893259        7.39560054789624
H           10.78062973925026       -7.57069568714476        8.99555230489348
H           11.60118177723739       -6.93642031996788       11.20212231393747
H           11.75314719759725       -6.72646810984793       13.58715917137502
H           12.03356528166008       -5.13696767810677       14.30452353885559
H           12.53611971200419       -5.44278000098532       12.64572106832756
H            8.66479891962664       -4.77560102890774       13.89490101425355
H            9.61075936465440       -3.36215554727683       13.39045929242898
H           10.11836720143158       -4.32631747681289       14.77999979729825
H            8.23618553429909       -4.36186550828429       11.70310089752888
H            7.40144339312014       -5.02721913097438        9.52422031097649
H            3.54580932511359       -4.30062217127930        0.91433181266267
H            2.28562594923691       -2.76214468371829       -0.47819995129591
