54
 energy: -11.197310453296 gnorm: 0.000242669402 xtb: 6.5.0 (97a52f5)
C            2.49926851913283        0.08291443487582       -0.71160995066441
N            3.67280681734898       -0.75241005440110       -0.44930837531004
C            4.26987176359576       -0.64681598743136        0.88302163960233
C            4.19178814623749       -1.61410599055908       -1.42001167335350
C            5.29614171231498       -2.43547242139997       -1.14840103603683
C            5.79722837895477       -3.28580639686264       -2.09797708570126
C            5.22633472247430       -3.36608045632906       -3.37674468002810
C            5.77320828705227       -4.27763930861806       -4.34710332862198
C            5.31730202007513       -4.44493050731740       -5.61163419292013
C            5.87894923842616       -5.35920211152952       -6.52674092084742
N            5.44187529407456       -5.50848611938812       -7.73321343721912
N            6.00227520342090       -6.39115074997691       -8.55951134388736
C            5.60148101663072       -6.50768561879218       -9.77936138030173
C            6.13341236831352       -7.41407448926919      -10.74779258550052
C            5.59476838413420       -7.39491218296132      -12.04536630566695
C            6.05062754544908       -8.22670755423293      -13.03122375960723
C            7.08313120672202       -9.14091853309594      -12.78154481673112
C            7.57512676148487      -10.01592386315980      -13.79234690875114
C            8.57371159851117      -10.89413970952370      -13.53748955582543
C            9.17079402185649      -10.97592898080289      -12.24367860828403
C           10.20260101061148      -11.87255773929768      -11.95505964790897
C           10.75846024385814      -11.92753495653716      -10.69356626648765
C           10.30761835198656      -11.09776445377888       -9.68869588865434
C            9.27837243494467      -10.18231742629969       -9.92574979682043
C            8.78700232025170       -9.30740308592216       -8.91361407371105
C            7.79046228778594       -8.42988650361726       -9.17511276524144
C            7.18242548583601       -8.33181568751445      -10.45831995808238
C            7.65054653915985       -9.19214519591581      -11.48476997228513
C            8.70153005193280      -10.11840869812348      -11.21734194283122
C            4.12478279685689       -2.54147487373132       -3.65033538009323
C            3.62345064425164       -1.69164421774088       -2.70016176176884
H            2.21823159359939        0.65668907935510        0.16913486834135
H            1.65237740554797       -0.54046892699165       -0.99263788164440
H            2.71103863779881        0.78148981830162       -1.51896176256091
H            3.75605979322350        0.09756570685499        1.48779751597779
H            5.31473297689432       -0.35306786797797        0.80184895076789
H            4.20755687445546       -1.60434774944877        1.39672887750802
H            5.75306495811820       -2.39802994049296       -0.17574973881276
H            6.64410811382378       -3.90920575393459       -1.86707238048740
H            6.61180332296376       -4.87478072513106       -4.03398546114872
H            4.48469651167919       -3.86193291938468       -5.95794121677575
H            6.71018297885757       -5.96812798827576       -6.21830982744352
H            4.80201829135135       -5.85667220628747      -10.08469754002362
H            4.80090307792266       -6.70076000492439      -12.26258656123305
H            5.61784558261253       -8.18642184884077      -14.01597701032038
H            7.13529615092502       -9.96720721167818      -14.77350152392028
H            8.93301347512109      -11.54752966720939      -14.31355915969732
H           10.56138407994671      -12.52421444156671      -12.73295181931108
H           11.55367558729558      -12.62635561248549      -10.49150889428746
H           10.74713003242140      -11.14780498205018       -8.70745053167371
H            9.22509256272138       -9.35608645451448       -7.93172857287352
H            7.44167455546978       -7.78218554217455       -8.39492883701273
H            3.66332861382864       -2.57588358479211       -4.62067967698270
H            2.77869964974591       -1.07025173710200       -2.93804605683546
