71
 energy: -13.898965943102 gnorm: 0.000642810992 xtb: 6.5.0 (97a52f5)
C            1.29562563078228        0.88235073499005       -1.07286791884508
N            2.22189349261385        0.16195382178200       -0.19906512767255
C            2.38119095753514        0.68165213718681        1.15911617325918
C            2.93464685548663       -0.96203034162447       -0.64714246462619
C            3.70437299749120       -1.72992826882990        0.23405624817740
C            4.39985640816983       -2.82711105596745       -0.20534936514011
C            4.37078220816514       -3.21242270098758       -1.54961184810109
C            5.11828255761559       -4.37743543497842       -1.97885093997075
C            5.31712435375935       -4.73885673656400       -3.25916093184756
C            6.05147704293309       -5.90574222978292       -3.70716046120511
C            6.45262315298696       -6.89138217503026       -2.82696769617252
C            7.14903424805307       -7.98199844138990       -3.30887152347562
C            7.58970548559223       -9.05408274401995       -2.43892986454585
C            7.30330079205696       -9.17783591762528       -1.13064396399853
C            7.75389798497887      -10.25720650446398       -0.27554123785635
C            7.29796539624237      -10.32713248399625        1.04490606177182
C            7.70224805725819      -11.33347738522071        1.88396190609926
C            8.58840204506516      -12.32541096885678        1.44905136120635
N            9.00331855257293      -13.35652236605615        2.30695653179292
C            8.45032321853200      -13.50311478967296        3.65354706752345
C           10.01079673612327      -14.33670088971132        1.90057417084359
C            9.04677118292670      -12.25334180235248        0.12858968018723
C            8.64101483171820      -11.24739241323703       -0.71112633679943
N            7.44004311722836       -8.07954078835982       -4.60766633909701
C            7.01045714992938       -7.08715514610788       -5.38941210813144
C            7.31445877425832       -7.18726698094961       -6.80126593520319
C            7.99278800537553       -8.21869577454811       -7.32378240469208
C            8.33815667104379       -8.39123418085807       -8.72342039137635
C            9.02998737927598       -9.53489221928422       -9.12366772323967
C            9.37397889817378       -9.72674777532233      -10.44213785018201
C            9.04321105546059       -8.78463178021004      -11.39462052875550
C            9.40597628800821       -9.01481184896781      -12.86055831944126
F           10.56844194761113       -9.69297588855662      -12.92039350834362
F            8.41900843965479       -9.73009048137443      -13.43296732635402
F            9.53324823800952       -7.82180089888616      -13.47306735423320
C            8.35356540733632       -7.65061319215774      -11.01623966326198
C            8.00543772231303       -7.45103717213917       -9.69958546952282
N            6.32538808570433       -6.00649557386394       -5.00927365173940
C            3.59873126914876       -2.44764395603507       -2.43062088129681
C            2.89859559542363       -1.35337452567871       -1.99037975676036
H            0.70716322963991        1.60232654804909       -0.50843261090093
H            0.60741982032794        0.18367672517376       -1.54429745155399
H            1.84893644525175        1.41610246145071       -1.84289748907009
H            1.91354969879415        1.65871693772278        1.25947082381740
H            3.43763687613202        0.78987544084539        1.39633254289284
H            1.92064537194092        0.00272278430356        1.87395715625880
H            3.73933610799467       -1.46147475559789        1.27469570422546
H            4.98456046234529       -3.40486248656784        0.48989195463108
H            5.55944192963968       -4.97171749531259       -1.20019351433856
H            4.93481212895060       -4.10967498477886       -4.04043221961288
H            6.21699832444909       -6.81434409537116       -1.78413577351377
H            8.18145888900042       -9.81283948955477       -2.91466253061414
H            6.68080682659951       -8.43569184417034       -0.66634139999629
H            6.61538487645260       -9.57439369113226        1.40038677381627
H            7.33943817467281      -11.35679436564446        2.89583534427468
H            7.36311413038880      -13.50716946891800        3.61269463136421
H            8.78220238552413      -12.68059743596123        4.28372075973472
H            8.77190511474450      -14.43708862144661        4.10881246036887
H           10.89374245218577      -13.82855547234932        1.51809824872320
H            9.60654543350233      -14.98633275910471        1.12675719428040
H           10.31842405660079      -14.95296719788377        2.74267980964216
H            9.72326470904542      -13.00608779816686       -0.23456423154679
H            9.01966341932791      -11.21876099397072       -1.71682654743019
H            6.96913091571472       -6.39045723683333       -7.43157031385816
H            8.31143873226616       -8.99114200478475       -6.64749983085096
H            9.29408456850622      -10.27384806044166       -8.38672531459376
H            9.90713841014379      -10.61089435205020      -10.74780434695645
H            8.09642557001189       -6.92411635210713      -11.76826094904906
H            7.47248836224039       -6.55884242744242       -9.42433112539428
H            3.53989097350109       -2.72760088356150       -3.46700297590201
H            2.31794337151912       -0.77996948470949       -2.69062508784634
