76
 energy: -14.675027159324 gnorm: 0.000666051464 xtb: 6.5.0 (97a52f5)
C            1.50896950002382       -0.61009187306063       -1.01670529791892
N            2.40193079106511       -0.02100274331683       -0.01821005740844
C            2.49325010955871        1.43952254024202        0.00479058222661
C            3.14295249170279       -0.81934695083830        0.86986539331013
C            3.91464214393941       -0.24644818923219        1.88751243729439
C            4.63621136688575       -1.02679964272303        2.75481670937077
C            4.62969820654815       -2.42229619624078        2.65177821774131
C            5.40233200171035       -3.21266959877548        3.58930589472765
C            5.55389164466322       -4.54890162166537        3.53898087715613
C            6.31457544622559       -5.35592225305508        4.47317693650623
C            6.92785222422679       -4.79852940785274        5.57879792452646
C            7.63911121824555       -5.61318174916811        6.43821245500347
C            8.30147261771116       -5.08696181507384        7.61545001254705
C            8.26705323978087       -3.81042720811632        8.03966342304426
C            8.93541252530717       -3.30569036771861        9.22242095984915
C            8.75340616746206       -1.97163191742423        9.60348107156416
C            9.37071492688427       -1.45948151083706       10.71641196406182
C           10.20802184434426       -2.25335840803052       11.50891514098991
N           10.84271669121269       -1.72923032359917       12.64810592574949
C           10.55627697062225       -0.37825995753083       13.13224489878338
C           11.80634100956117       -2.51509958393591       13.41959112265070
C           10.39163644077676       -3.58731148871726       11.12628769746273
C            9.77249045183021       -4.10015319939988       10.01425902981144
N            7.73371284467391       -6.92491014156980        6.20669133031968
C            7.10839182740527       -7.38258277971276        5.11864055633191
C            7.19068740908669       -8.80576824544154        4.86653991109867
C            7.85297499275775       -9.65022697029617        5.67439513083164
C            7.96075198324031      -11.08325273036966        5.50204376363952
C            8.65544522130413      -11.84251688397646        6.44960987586966
C            8.76279234192555      -13.20461703605999        6.32752503184330
C            8.18088664230907      -13.88194434983187        5.24936814187011
N            8.27795739796238      -15.27896915432646        5.13075704874309
C            8.88940258570235      -16.09818606360025        6.17818499549384
C            7.75033913889232      -15.98778724512176        3.96437951439785
C            7.49251914626014      -13.12006750683623        4.29765979983870
C            7.38419944118345      -11.75772342176559        4.42029903459047
N            6.40397192398429       -6.66726946795701        4.23632946971523
C            3.85677415931103       -2.99628126193118        1.63597767138819
C            3.13322914587436       -2.21563299447879        0.76971886798950
H            0.92787567914290        0.15696683387239       -1.52478432023318
H            0.81293242956776       -1.29621330266568       -0.53754637036957
H            2.08777558421008       -1.15227208914320       -1.76218268367366
H            1.96639581350688        1.87948117841409       -0.83963211446001
H            3.53498843970513        1.74998481561746       -0.05166776767200
H            2.05482808831167        1.82734088720604        0.92247107147001
H            3.93282472247509        0.82339070687219        1.99524240012169
H            5.22164711470293       -0.56568313860339        3.53198128471080
H            5.89114521682851       -2.66716459236561        4.37513977513767
H            5.08888045440694       -5.09187280364746        2.73819683803322
H            6.85336358525526       -3.74616586739993        5.76769242724884
H            8.85052961690150       -5.80855429823682        8.19001839777099
H            7.69686602911267       -3.09431835529667        7.47738402210304
H            8.11444699820295       -1.34315127027722        9.00675862738891
H            9.21706406865417       -0.42878913937354       10.98199036060505
H           10.92742624738272        0.35987626338119       12.42360112299662
H           11.03004358547846       -0.19803304377111       14.09517409944326
H            9.48310278666229       -0.24499934948456       13.25610852450261
H           12.56844264206553       -2.92630832391882       12.76012509039315
H           11.29897884490153       -3.33147665947809       13.93043286058796
H           12.30583912087455       -1.90030005577836       14.16573506403667
H           11.02459010846051       -4.22175633638840       11.72075116990694
H            9.94138463149732       -5.12737454583972        9.74555065098253
H            6.68304288335116       -9.17587319291427        3.99663419558856
H            8.33911328981843       -9.22880839590278        6.53557044842678
H            9.10807964656190      -11.34133094792861        7.28819302597098
H            9.30669442169928      -13.76291262833034        7.06840125892409
H            8.44382804822003      -15.86583421497574        7.14372485200029
H            9.96002849876787      -15.90764901946660        6.22440828016208
H            8.73724789238046      -17.15842250187962        5.98597897061880
H            8.14567913700743      -15.55030724784882        3.04947513665803
H            6.66379889941643      -15.92458544132584        3.94902680371435
H            8.03288509648902      -17.03850547667405        3.98270948460060
H            7.03157097230156      -13.61492612491207        3.46152831351036
H            6.84547315058010      -11.20177205416467        3.67406332024785
H            3.81966430553562       -4.06611709474622        1.53541286960998
H            2.55145571740672       -2.68235345328006       -0.00506095411436
