90
 energy: -18.219830149768 gnorm: 0.000577810973 xtb: 6.5.0 (97a52f5)
C            1.79282432875809       -0.86047158741756        1.16155101778450
N            2.51752849379039       -0.05430330728725        0.17837269904686
C            2.51012240181773       -0.53759641644103       -1.20287962582204
C            3.15643139368594        1.14503225145108        0.53720679568514
C            3.74193501800485        1.97121569386581       -0.42907461041207
C            4.36143191973593        3.14348756012115       -0.07742365631733
C            4.43281137447324        3.55396537329728        1.25844129896355
C            5.09595826168531        4.79949969242529        1.58812523312571
C            5.29634860349335        5.27040858601808        2.83283237332815
C            5.95632476715175        6.51617685485851        3.17236551220574
C            6.38344400162607        7.39546209407888        2.19614645443837
C            7.00517967472635        8.57083295427418        2.57008570940511
C            7.46949791193459        9.53018251183354        1.58716374455312
C            7.27297756317128        9.45270166578448        0.25816214005426
C            7.74301899091086       10.41690379938976       -0.71599344548146
C            7.38801657339641       10.26669041261314       -2.06104453316831
C            7.81152900518020       11.15996597580074       -3.01192944655173
C            8.61674819706279       12.25260766456435       -2.67001813938049
N            9.04451953659013       13.17226206456753       -3.64262150451910
C            8.63655292504438       13.05055320677370       -5.04292621305590
C            9.90949902539352       14.30215588801322       -3.30074616239650
C            8.97718043933705       12.39894821939618       -1.32520083332359
C            8.55116418710283       11.50684343197005       -0.37333419385110
N            7.19872181611446        8.85429690016211        3.86053714386131
C            6.75593829916380        7.95040015345946        4.73923122973919
C            6.96218825323377        8.24555310035826        6.14151178387827
C            7.54761769444967        9.37636533202158        6.56828504156565
C            7.79544318684010        9.73708550839369        7.94863517773653
C            8.36713599412519       10.97885682107000        8.24478481844027
C            8.61980957119568       11.35015897846151        9.54158630691535
C            8.31648103472404       10.49724401834557       10.60274945153739
N            8.58390451548959       10.88211285775005       11.95458582897607
C            8.48296314528708       12.25990322131373       12.34961025056677
C            9.38446877217277       12.80641056856025       13.26001669654555
C            9.28180902797208       14.12396987083353       13.64639796084882
C            8.27686836666361       14.92030765150693       13.13227097046999
C            7.37379498486128       14.39297521073538       12.22964135115299
C            7.47476746583144       13.07583555875314       11.84142342782467
C            8.94442386812806        9.89153603008557       12.93098935851255
C            8.46899492541158        9.97464139391015       14.23759518601984
C            8.81516854687657        9.02574207844643       15.17331659124696
C            9.64363187857847        7.97734717681275       14.82274935192364
C           10.12606022629010        7.88218288867207       13.53181818615281
C            9.78102641874051        8.82976114956120       12.59435894481556
C            7.74695098622221        9.25770282890184       10.31094100669512
C            7.49069062279188        8.88458716074500        9.01506296310847
N            6.13940612515757        6.79640960317991        4.46518693870278
C            3.84834061094622        2.72850597928490        2.22561008608478
C            3.22717041078317        1.55655164515418        1.87343409915610
H            1.25158491639527       -1.67290014256806        0.68073663864816
H            1.06993449867696       -0.24306670720724        1.69169654777514
H            2.48931228292074       -1.28980711183165        1.87942949062346
H            2.10158967129379       -1.54435116334684       -1.26416489742261
H            3.52438496129170       -0.56381935286595       -1.59692010902038
H            1.90326507483586        0.11814812235025       -1.82460495663290
H            3.69891667111640        1.68336507241453       -1.46428936573705
H            4.80509157197776        3.76427339279397       -0.83711321496741
H            5.45902539400543        5.37283392235740        0.75541029759154
H            4.95810445080560        4.68730371075825        3.66812625777107
H            6.23496760039980        7.16819695931700        1.15942573950135
H            7.99933618084303       10.37488052940605        1.98475429647661
H            6.71275303939240        8.62363363779641       -0.13280146279122
H            6.76861908783779        9.43325738298271       -2.34576599788349
H            7.52221113242295       11.01901466230481       -4.03798009042316
H            9.01280108040857       12.11913493772080       -5.46204495447962
H            9.02474123803004       13.87327132407964       -5.63993616526253
H            7.55068913768714       13.06189981714764       -5.11790674743228
H           10.84037234511717       13.94237089004240       -2.86615456964695
H            9.41012045372262       14.95198458024511       -2.58440224840146
H           10.15360651723886       14.89207041022530       -4.18188232358229
H            9.59756252075442       13.22788311339888       -1.03458587086226
H            8.84829980486973       11.64800720063460        0.65028363523792
H            6.61936744484609        7.51409422662645        6.84791855065811
H            7.86218148671970       10.08150141632273        5.82045268844530
H            8.61083521944576       11.64758956119130        7.43703197693718
H            9.07032935639828       12.30359700636576        9.75513737027840
H           10.16807700246635       12.18265465593383       13.65316889397464
H            9.98645024909828       14.53465051623270       14.35103115418443
H            8.19671102365860       15.95133678064304       13.43585738589208
H            6.58805854349656       15.01305882056644       11.82991742319388
H            6.76798321642202       12.65706317673541       11.14653369561888
H            7.81905733929074       10.79002966163802       14.50304329789828
H            8.43860305837421        9.10077161136320       16.18040661066264
H            9.91412615935236        7.23509222522263       15.55589348552551
H           10.77405038818262        7.06552999981914       13.25819316406902
H           10.16128516000449        8.76563414426213       11.58983464629072
H            7.49886678531374        8.59816627117709       11.12401954195684
H            7.05391240109322        7.92176439883940        8.81953721027572
H            3.87933858627576        3.01662501697820        3.26098289806676
H            2.79093560537119        0.93775704552045        2.63716931015416
