68
 energy: -13.441287618833 gnorm: 0.000423092728 xtb: 6.5.0 (97a52f5)
C            1.33981088383986       -1.30541931003192        0.33668255948663
N            2.33564358415097       -0.29004228283132       -0.00864340844568
C            2.61570068606741       -0.10005338650039       -1.43231405466345
C            2.99342890922537        0.46229023855396        0.97842954020917
C            3.84880018216126        1.51640718918152        0.63646098882190
C            4.49366583104003        2.24728644228284        1.60169107010923
C            4.32486639351593        1.96184859942168        2.96102738007772
C            5.02788754791440        2.75192743770881        3.95256019453853
C            5.06311293414635        2.48586324004404        5.27100432785169
C            5.76079311941117        3.26274728843231        6.27785727500588
C            6.34732573223490        4.47647369536180        5.97581540838384
C            7.00817088616316        5.17179563200305        6.96946496998731
C            7.63685652887162        6.45355169453782        6.71526700556166
C            7.56420350437339        7.15523581054295        5.56976024242437
C            8.19858347489420        8.43692445290029        5.33376384919910
C            7.94574798479361        9.12373049550915        4.14127753049026
C            8.52607740141748       10.33976501725153        3.88431875479919
C            9.39614571582305       10.93487346761446        4.80551061058085
N            9.99317270685512       12.17876144425938        4.54266042671034
C            9.65273775001136       12.95643038846786        3.35046878115258
C           10.99181675119588       12.75666132520053        5.44280092756004
C            9.65237416079653       10.24522635460900        5.99679721628280
C            9.06965404818490        9.02999177604022        6.25474737987342
N            7.09095686852257        4.67314050051542        8.20535321156941
C            6.48860705988349        3.49983594939032        8.41413427618457
C            6.56893206684031        2.95217651475177        9.75357144937132
C            7.21826369871243        3.57065768958328       10.75054353623737
C            7.35358721660723        3.08638283312650       12.11371165212467
C            8.08807692663707        3.83342886165715       13.03695567230622
C            8.24053881169032        3.40173506499612       14.33598785700623
C            7.66344740756555        2.21574513162666       14.74381826591781
C            6.93199238402388        1.46269750339426       13.84691337644935
C            6.77679798570803        1.89030919305751       12.54629990042002
N            5.81942018014946        2.76972292659399        7.51771947757676
C            3.46698553098890        0.91076043188764        3.30408894369436
C            2.81800578685207        0.18267800228507        2.33893833201615
H            0.83739955664254       -1.68130961904042       -0.55236878569160
H            0.58353858573741       -0.87978717381694        0.99371818573631
H            1.81899866693774       -2.14297055867514        0.84022747655883
H            2.13650430982523       -0.87118098054976       -2.03220463017033
H            3.68775262160485       -0.15265734687727       -1.61338992472857
H            2.24596445776804        0.86968034180298       -1.76031860200538
H            3.99559661246954        1.75990286468331       -0.40066582559486
H            5.14740272427345        3.05391109848219        1.31657467522633
H            5.57529267887262        3.59884881503909        3.58184814162442
H            4.56019741515079        1.61013720008398        5.63518769432049
H            6.28730981692916        4.87520021064025        4.98260922572988
H            8.18706861942068        6.86451526976395        7.54038054925723
H            6.98081275192040        6.76006851342441        4.75879802803439
H            7.28008735283702        8.68353245456224        3.41856259260305
H            8.31643596564844       10.84248724365813        2.95712702633890
H           10.00821205479569       12.44633299496561        2.45715158127949
H           10.10573871401534       13.94523580430891        3.38447046690574
H            8.57402603382765       13.08453252023858        3.28228710164169
H           11.78656734114567       12.03737086900133        5.63198166609194
H           10.52807542232014       13.03228188721809        6.38812735863981
H           11.44242917269063       13.64719408690329        5.00917254639171
H           10.31366231755248       10.68100095925295        6.72434899938956
H            9.29471827007314        8.52408918652908        7.17642327920168
H            6.08681411692831        2.00881618357472        9.92428581067515
H            7.68892383563153        4.51004396844218       10.52363281137246
H            8.54004685057825        4.75804604881604       12.72077710892202
H            8.81167291943142        3.99051765482274       15.03524527818650
H            7.78389838056140        1.87829510057185       15.76036138353324
H            6.48120634968950        0.53699323027981       14.16588380206331
H            6.20329966039766        1.29504963115813       11.85862750335965
H            3.30332022316456        0.67418934447437        4.34004455029752
H            2.16674755993030       -0.62202541718245        2.63030799794667
