43
 energy: -7.209590871638 gnorm: 0.000791740378 xtb: 6.5.0 (97a52f5)
C            1.46994544610629        0.27446143567977       -1.02021438913147
N            2.64303916666980       -0.01572928254772       -0.19578799445786
C            3.19608658297650        1.10076695450436        0.57195153459028
C            3.21010756776359       -1.29595125770370       -0.14546199779640
C            4.23956181885590       -1.59722523669183        0.75377380423932
C            4.79288256141227       -2.84952801523044        0.80209727372115
C            4.35419276127101       -3.86840851523599       -0.04968603113254
C            4.96462914551175       -5.17745873313116        0.02767332156292
C            4.76614211721235       -6.18834649640105       -0.83786499426347
C            5.40738975202905       -7.48999363599906       -0.72916048181201
C            5.93894987967466       -8.07460353067155       -1.85285485080385
C            6.61111024956113       -9.30799075283971       -1.78991619431467
C            7.18954109206776       -9.91195779140258       -2.92723824543727
C            7.84193004825948      -11.10335808015513       -2.82313599861785
C            7.94944296864760      -11.74875516629907       -1.58581178202126
C            7.40336396724382      -11.19503360395062       -0.46813624797045
C            6.72199786381730       -9.95982459129520       -0.54001173174409
C            6.13489958196685       -9.35652091384647        0.58013596235363
N            5.49439369142909       -8.18545223190877        0.48478172635944
C            4.81399035873935       -7.68060782731199        1.68206120278539
C            3.32225213612535       -3.57021449931790       -0.94550067920110
C            2.76547645144549       -2.31892568229743       -0.99147619739962
H            1.06123486778241        1.25403722930837       -0.78437596118126
H            0.69368290736208       -0.46504001345032       -0.83679714585503
H            1.74297485877023        0.25706088923739       -2.07308312243996
H            2.74812141299689        2.04273378687630        0.26531783472036
H            4.26897640903214        1.17056781734566        0.40704662041975
H            3.00319174853373        0.95404409755299        1.63230781902310
H            4.59304349235644       -0.83589279444780        1.42538112852877
H            5.58312658195288       -3.05971934969238        1.50194346669650
H            5.66737015450485       -5.33327866149843        0.82583322518993
H            4.16026783604019       -6.01530976750403       -1.70927320132625
H            5.86762280034761       -7.56481756204668       -2.79618172597575
H            7.11062616578929       -9.41636876570766       -3.87900941945592
H            8.28084855158473      -11.55409023718173       -3.69785533605959
H            8.46790519572268      -12.69099557818229       -1.52075155007892
H            7.48489095950245      -11.69255616670239        0.48246305641561
H            6.18375493497914       -9.84665875074698        1.53471111680034
H            4.45734365924043       -8.51035582492494        2.28876465644427
H            3.95287756446004       -7.07584107866118        1.40730153351177
H            5.50024485779139       -7.08507150984641        2.27973096355862
H            2.95024414748778       -4.33703034537814       -1.60054699963860
H            1.97989568497510       -2.11488996029617       -1.69628396879934
