43
 energy: -6.209668975425 gnorm: 0.000800901373 xtb: 6.5.0 (97a52f5)
C            1.47934402900923        0.35435095978387        0.84279754038368
N            2.83470528871705       -0.01828703654793        0.43598758804051
C            3.79008607249782       -0.29691753329073        1.50902783036167
C            3.19851071906329       -0.10770415098690       -0.91375481371407
C            4.51912828136666       -0.37646438515387       -1.29169616119459
C            4.87303857826369       -0.46371999081765       -2.61221560503681
C            3.92817794137513       -0.29347581730791       -3.62943828870192
C            4.34103442283725       -0.39660482174557       -5.01296206844861
C            3.52004724258931       -0.39476375336031       -6.07910695642475
C            3.94505393060959       -0.49826107748244       -7.40816503682051
C            5.18042263616302       -0.43724549838357       -7.91161917413580
C            5.46610415969236       -0.60037619443103       -9.24610728799087
N            4.64530364843141       -0.84695070602530      -10.28440844927890
C            5.06807484458995       -1.01825156714402      -11.55284953691955
C            6.37855873783310       -0.96759654799790      -11.96734452318593
C            6.83847155240476       -1.13842524934910      -13.20495362787381
C            8.16526449575618       -1.08990932299149      -13.57273264467601
C            9.27292854714918       -0.72282495727791      -12.92032004020263
C            9.41546775287003        0.10539337084027      -11.96017290268603
C            8.47566863492545        0.93627520414562      -11.45643364188204
C            2.60867159831414       -0.02229122189720       -3.25260209784545
C            2.25447820310221        0.06872944541692       -1.93208451869340
H            1.41739171834473        0.48743688329212        1.92017037768551
H            0.77774770531385       -0.42378209708582        0.55142201618522
H            1.19428693718266        1.29211603896829        0.37121645180321
H            3.30166154411098       -0.28604357885063        2.48049151262921
H            4.57557368437101        0.45547637993413        1.51094212829194
H            4.23277620332031       -1.28015044385362        1.36565692194165
H            5.26876683591034       -0.50985131602817       -0.53270962840089
H            5.89482584649375       -0.67132930036729       -2.87982732294235
H            5.39647994699547       -0.50083343459338       -5.18751285943925
H            2.45858072593190       -0.33610082892987       -5.92217006827477
H            6.00739104622429       -0.25153203227266       -7.25047632692742
H            3.63569584011199       -0.91188202300850      -10.08651091730865
H            4.33486093409055       -1.21432269166153      -12.32012915233225
H            0.27773804778472       -7.12084168851710      -15.31154061729648
H            6.12851585362815       -1.37288620146921      -13.98028397935039
H            5.34809986088052       -6.78979119212850      -13.74976181944632
H           10.39428060046080       -3.74329684958158      -17.57884390077370
H           11.73284247208444        0.88032805730596      -11.39904211922326
H            8.12993991932791        0.55186942271958      -10.54134322639976
H            1.86017066955844        0.12702912762625       -4.00931098896374
H            1.23189229062015        0.27332861891862       -1.67210206386440
