37
 energy: -5.814732517491 gnorm: 0.000379407896 xtb: 6.5.0 (97a52f5)
C            1.28339985000961        0.02301221705741        0.67779294004437
N            2.54344764381980       -0.06248797257092       -0.06168045391034
C            3.11333743226248       -1.39935487582555       -0.23197550795949
C            3.16757951552861        1.07665459077111       -0.58592495453172
C            4.29172779872046        0.97134399612069       -1.41325712593530
C            4.89803936373797        2.08634365972041       -1.92812955365361
C            4.42020723421354        3.36998243268022       -1.64261507376012
C            5.09283897755962        4.52128709185670       -2.20238030957721
C            4.78613832019067        5.80729778582466       -1.94790965479562
C            5.45870972669182        6.95894922012144       -2.50782962638761
C            6.47851590909567        6.85310344780864       -3.45872473529694
C            7.07917228927871        7.97548932042208       -3.95528148914805
N            6.69146228900209        9.20855181787745       -3.53657395631134
C            7.35470708146557       10.40287172052350       -4.06835465235892
C            5.70935784278217        9.34374227249620       -2.60791053673001
C            5.08809385572201        8.24164506406624       -2.09306565161094
C            3.29545268922537        3.47578626155378       -0.81684173408900
C            2.68639210992601        2.36069657805189       -0.30418870341397
H            0.86952125313647       -0.96637133474103        0.85659571692961
H            0.55490925853588        0.59343580148005        0.10618293659233
H            1.44830522994831        0.50722263583396        1.63754941168304
H            2.60251797001538       -2.12386457556004        0.39765804839050
H            4.16400902730122       -1.39446116067096        0.04877403370723
H            3.01784801152136       -1.71323744952388       -1.26885706473150
H            4.67735360093631       -0.00180904823784       -1.65783330099312
H            5.76013538599476        1.98112392836145       -2.56392850980404
H            5.91136166579403        4.31186380793441       -2.86515213263988
H            3.98509513836362        6.01721738351939       -1.26435922428577
H            6.79285010963505        5.88637512149343       -3.80721346320149
H            7.86749617768999        7.90289571185696       -4.68386860088600
H            7.76339743615702       10.20238883923902       -5.05614983065188
H            8.16351462562477       10.70025420098772       -3.40471951550699
H            6.64439325389637       11.22245460938788       -4.15082906479378
H            5.43522891916754       10.33362527609515       -2.28750146729413
H            4.30869154556131        8.35427757519167       -1.35961738827502
H            2.89613199982826        4.44562543164144       -0.58209762691244
H            1.82895946166418        2.47279861715540        0.33447782210447
