102
 energy: -15.921358513398 gnorm: 0.000621061049 xtb: 6.5.0 (97a52f5)
C            1.23631647163184       -0.03961076576461        0.88456632211778
N            2.51158225160868       -0.24340147248068        0.19618482205472
C            3.10798593876657       -1.57617888943244        0.29358951519954
C            3.12692493000930        0.78493188481994       -0.52854771697695
C            4.35661159663018        0.58622855559329       -1.16794442409992
C            4.95904045610972        1.59473951085911       -1.87281664368106
C            4.36778564540830        2.85855820892306       -1.98129593747509
C            5.03604668417208        3.89575935019658       -2.73578867933806
C            4.57634476540206        5.14778585490182       -2.92085775550976
C            5.24007555556040        6.18456968155442       -3.68070193915618
C            6.48396429339656        5.99817561094758       -4.29250589434119
C            7.06110483767721        7.01059253351965       -5.00665590904347
N            6.43142189650799        8.20725052574644       -5.13623379490398
C            7.07265762277817        9.29535237248955       -5.90178313842414
C            7.89411570265656       10.21709783062592       -5.01240731496426
C            8.55550815030323       11.35872782880478       -5.78465501278175
C            9.37131571184225       12.29703481482929       -4.89426987691446
C           10.02365569873739       13.43982764428509       -5.67337407887765
C           10.84495703930048       14.38068969824271       -4.79081737382330
C           11.50491329732784       15.51278037804001       -5.57920522346873
C           12.34766533490666       16.44428857780298       -4.70703573023988
C           13.02682596995850       17.55680316248263       -5.50674595109112
C           13.89505295220067       18.47509685710540       -4.64577219256879
C           14.59823143460265       19.56265039878742       -5.45794944337925
C           15.49535117691247       20.45817057590855       -4.61611269275032
N           16.20550390271605       21.45604639099297       -5.44143362013155
C           15.69380322602870       22.70618767666776       -5.58484419335264
C           16.32376405649364       23.62246525554490       -6.37899624850214
C           17.49605428590069       23.28313001295907       -7.06220481445057
C           18.14329891525251       24.26687329791056       -7.90278883448611
C           19.21380224539107       24.03924310129737       -8.68743556502203
C           19.86640855136882       25.02087111063580       -9.52524951906228
C           20.92056581851962       24.62568855719405      -10.35673832303676
C           21.56510607516652       25.52585233831547      -11.16350607532005
C           21.19349850645390       26.87562683256537      -11.18221879602483
N           21.85092174652788       27.79739734689969      -12.00678856288312
C           22.88601999585002       27.38007687081979      -12.95338905293240
C           21.53595525433239       29.22622233246560      -11.96542910409005
C           20.14061075434312       27.27147707162361      -10.34813174559522
C           19.49447934566360       26.37012217861226       -9.54314519588414
C           17.99352374932685       21.98651800057102       -6.89657165744879
C           17.34155548553181       21.09479531483897       -6.09226975097687
C            5.22871187778002        8.42417134704259       -4.54413281732950
C            4.62661958460467        7.43325713654862       -3.82170795663463
C            3.13766483911267        3.05736208484046       -1.34386796052995
C            2.53526500670798        2.04931750831693       -0.63753809837801
H            0.92256619079172       -0.94092126795068        1.40520987190189
H            0.46384986788195        0.22439142168769        0.16593033475843
H            1.33333397915976        0.75869519507879        1.61673898304506
H            2.48060501867338       -2.24565320666025        0.87707227264969
H            4.08030213246275       -1.51367113293164        0.77699374695361
H            3.22765620337803       -2.00299411234552       -0.69964700689982
H            4.83601326584463       -0.37366696101496       -1.10205550045529
H            5.90507153281156        1.41965427815869       -2.35537027743565
H            5.97413691584537        3.62342136563142       -3.18182474056352
H            3.63512992129112        5.41816154128101       -2.48047592283808
H            6.99369581349211        5.05657754120673       -4.20148336890527
H            8.01947344718470        6.87834532791424       -5.47667933498265
H            6.29400528420103        9.85799742662540       -6.42429675734500
H            7.69932345156421        8.85408111060955       -6.68174245876180
H            8.65674563396126        9.63133378408335       -4.48715253904478
H            7.25392643263453       10.62512549137739       -4.22229773369904
H            7.78840955267112       11.93335468235509       -6.31625737662855
H            9.19902776805983       10.94563752793213       -6.56983110484407
H           10.14225700213772       11.72467269667777       -4.36586682511365
H            8.72909355018642       12.70828790836667       -4.10713684935115
H            9.25186534952882       14.01203144584833       -6.20077459293100
H           10.66259842789851       13.02679337879841       -6.46231874383046
H           11.61293813480815       13.80750665518747       -4.25894340434245
H           10.20619055321021       14.80174820818761       -4.00603846547891
H           10.73650077812643       16.09377852488647       -6.10191640444575
H           12.13148379821728       15.08862029929504       -6.37219276211815
H           13.10686614239961       15.86016315204444       -4.17447964595194
H           11.72090188298925       16.88328677775240       -3.92247442487654
H           12.26826327306668       18.15076710281984       -6.02923220844673
H           13.63967913959392       17.11382569069943       -6.30019294447679
H           14.64221441245933       17.87722003998201       -4.11143991337821
H           13.28282652159953       18.93630883940486       -3.86252240661545
H           13.85634739398786       20.17743520381368       -5.97978816863663
H           15.19400289277295       19.10087258344968       -6.25320646562692
H           16.23820737114861       19.86297346766566       -4.07795281027563
H           14.91352092696369       20.97888895202030       -3.85073376973789
H           14.78524210203201       22.95609597645464       -5.06622813738405
H           15.91699616118148       24.61253283575399       -6.49010725059735
H           17.71146807771375       25.25007991241839       -7.89598446115250
H           19.62521597486403       23.04766670038033       -8.71720296480135
H           21.22335658077633       23.59281209050261      -10.35793775382947
H           22.37500832359055       25.19312023010677      -11.78723969514011
H           23.76323243416892       27.02937516069302      -12.41411236944046
H           23.18398063079011       28.20523825981716      -13.59583967939646
H           22.51025039161659       26.57990693592618      -13.58716989810337
H           21.60319072121008       29.59294938162391      -10.94357492322670
H           20.52996207598967       29.39633666729791      -12.34275359102228
H           22.23290833500591       29.79768323408524      -12.57364891203407
H           19.83007470897413       28.30068200892716      -10.34579015203237
H           18.69310817016294       26.70976428145596       -8.91245402724897
H           18.89542194716651       21.68673648358468       -7.39804783631843
H           17.71149206276475       20.09284622860314       -5.96453619985496
H            4.76447869900316        9.38802723220427       -4.65533169614817
H            3.67203504858507        7.60726480850958       -3.35648539127497
H            2.65368580595550        4.01488524732229       -1.40713804463939
H            1.59017314798405        2.23072288880312       -0.15845334088304
