81
 energy: -12.789033380467 gnorm: 0.000436945754 xtb: 6.5.0 (97a52f5)
C            1.31538944526973       -0.28599658593139       -0.34704866886545
N            2.67466195886178        0.22539843334760       -0.16687620222597
C            3.27083754246766        0.92203064011984       -1.30740775820898
C            3.36956331637905        0.05870775422197        1.03756129060477
C            4.69932836743868        0.47530979817471        1.17077153341556
C            5.37701147573802        0.31245466499054        2.34984223664692
C            4.76537075735012       -0.27216001947826        3.46412256978351
C            5.51513444626719       -0.42185931355505        4.69151418754430
C            5.02093441327585       -0.87248731233878        5.85993063658938
C            5.77059491722749       -1.01960824569002        7.08815306805309
C            7.14684578609668       -0.78414291249762        7.16931501750520
C            7.80467332303359       -0.93489240228912        8.35757902521663
N            7.12964989784160       -1.30905820629609        9.47496903423070
C            7.85634026093926       -1.49032399604005       10.74777115433850
C            8.27897730683016       -2.93655042150657       10.96108542606932
C            8.96893502682997       -3.16965215539330       12.30553789360408
C            9.34381899066751       -4.63324047628469       12.54104964307910
C            9.95417845683931       -4.88201491694679       13.91278449394158
N           10.25821005663918       -6.31053720386692       14.13200594162582
C           11.52412375557221       -6.77064228753966       13.95807273370561
C           11.80794477956196       -8.09459696509798       14.13955517819606
C           10.79893851435789       -8.99464455394940       14.49596254319095
C           11.12157264500821      -10.39185161027522       14.68640319284100
C           10.22870443836427      -11.37340809025801       14.91486774521742
C           10.54619174395351      -12.76895930295492       15.11994815932267
C            9.50904899188123      -13.69735450982205       15.26190706098945
C            9.76834523016188      -15.02735751790701       15.46136459398315
C           11.08229296507887      -15.50488892730714       15.53355199547146
N           11.34903287175075      -16.86443217055117       15.73905338336970
C           10.27895214709809      -17.86217549742696       15.76919915425801
C           12.71066757674977      -17.35750625133811       15.94791299117732
C           12.12005486047793      -14.57547584124576       15.39403666147568
C           11.86002778564369      -13.24542463644004       15.19189870941003
C            9.50538525785079       -8.48953300979409       14.65997771494418
C            9.25558319390196       -7.15910868201775       14.47594181710853
C            5.79516683784072       -1.55506067427402        9.42720856566920
C            5.10920208808743       -1.41601577880479        8.25439047781645
C            3.43687328332727       -0.69132897568518        3.33103648407262
C            2.75912545827371       -0.53077427540047        2.15108079728134
H            0.98733974947773       -0.16967983464164       -1.37707164021309
H            0.62671384180823        0.25644243714036        0.29675473685029
H            1.28107649520148       -1.34484626216776       -0.10086767379174
H            2.54213535828210        1.06681309521261       -2.10123045399809
H            4.10104589258132        0.34166019717480       -1.70356155322557
H            3.63014254687156        1.90109331144857       -0.99864024480728
H            5.19833991806420        0.92439609521727        0.33120125896115
H            6.39900782200795        0.64073539729728        2.42924862162564
H            6.54757819188713       -0.12925144492997        4.65120825453723
H            3.98086794602185       -1.13508372829381        5.90899686326045
H            7.69627940353814       -0.49134892958828        6.29341210485510
H            8.86436269390014       -0.76336115713800        8.42795865193508
H            7.21149320791089       -1.15347708074524       11.56393172679820
H            8.72564405625377       -0.82744668202511       10.75671290905066
H            8.93710451432959       -3.24974715953487       10.14303661735574
H            7.39848922154361       -3.58385854273784       10.88204228547783
H            8.31351447617573       -2.82732496129741       13.11442148550020
H            9.86449507601962       -2.54204087754711       12.37626332206776
H           10.03938112196244       -4.97131028496056       11.76490995288088
H            8.45599980185572       -5.26413062949717       12.42194161775923
H            9.27480111879008       -4.55052918566382       14.70278092886646
H           10.87095069045388       -4.30009171231945       14.03874968482637
H           12.29392947930520       -6.07452441211632       13.67509600840934
H           12.81272085118606       -8.45538793352609       14.00423941171916
H           12.16257851454235      -10.64846779832554       14.62595984501111
H            9.18524656538650      -11.12038468136579       14.93887187947874
H            8.49047666933021      -13.35281448566208       15.21083586131166
H            8.94971766117014      -15.71491973261677       15.57448682093023
H            9.67415274590122      -17.73091065599904       16.66363162865934
H           10.68636986470247      -18.87021958392047       15.77217860755539
H            9.64823573917388      -17.75830898911350       14.88923706763673
H           13.19732054796261      -16.78303948605896       16.73298584337311
H           13.28292401933410      -17.26770387715538       15.02722382656447
H           12.70512441123991      -18.40170420853735       16.25094538188544
H           13.13946732958720      -14.91415357482436       15.43779222864468
H           12.68167634181528      -12.55915516383211       15.09531573233570
H            8.70192376975677       -9.14532451707324       14.94128150603873
H            8.26384341084990       -6.76066549919563       14.59907988273505
H            5.29368324566826       -1.86060109844751       10.32860780536034
H            4.05103026620825       -1.60907178243627        8.22138468706527
H            2.93842508977254       -1.15355806192085        4.16357041413135
H            1.73733016135355       -0.85716408272807        2.07990562228959
