42
 energy: -8.872950117397 gnorm: 0.000374945764 xtb: 6.5.0 (97a52f5)
C           -0.17110890097418        1.19565124580558       -0.12674349043854
C           -1.45171638825069        0.72694747428680       -0.02084434473122
C           -2.67873791225037        1.53940106851363       -0.03660517949125
C           -2.69077772122424        2.81236085076940       -0.60711402192174
C           -3.84062209489573        3.57178385683423       -0.61546923314103
C           -5.00125507498973        3.07873481122318       -0.05293117129212
C           -5.00908396105241        1.82125768154629        0.51713707435602
C           -3.86166055728742        1.05826191134532        0.52482643084600
C           -1.39257037785939       -0.70256797112283        0.09685636316965
C           -0.09164167397551       -1.11063257494340        0.06929141146216
C            0.37108916353216       -2.50526236112059        0.17561485197200
C           -0.32351360246172       -3.53374033165960       -0.46227212639184
C            0.10024975503699       -4.84062407199153       -0.36069880274673
C            1.22179355907843       -5.14972819142768        0.38350668367801
C            1.91702054141725       -4.14684951918222        1.02989098667926
C            1.49658370443597       -2.83880488024643        0.93019598808805
C            0.73776416167813        0.08644927512770       -0.07440915602105
C            2.10135941632385        0.10116431505320       -0.22713322729805
C            2.96559385821059        1.26219646888637       -0.27052756844132
C            4.21406862364626        1.17091071249282       -0.89875737719866
C            5.06837700205486        2.24937715041903       -0.93845421259524
C            4.70794003856448        3.44292773478134       -0.34336146886821
C            3.49081950142180        3.55026607932699        0.30137997934880
C            2.63185356150225        2.47537970526956        0.34380488069230
H            0.09623434100370        2.22426276722374       -0.28463427536187
H           -1.79118431181772        3.19664730220170       -1.05551866585201
H           -3.83454830793492        4.55245806366365       -1.06288013112261
H           -5.89953327655133        3.67453818847693       -0.05875862698611
H           -5.91389533352898        1.43670085030445        0.95928002811829
H           -3.86784737696731        0.08331850156780        0.98036247978349
H           -2.24248675577609       -1.35584296543327        0.18982328490450
H           -1.19445229487817       -3.29147629500056       -1.04671170252754
H           -0.44449509708531       -5.62362374053184       -0.86263631605446
H            1.55193097694991       -6.17278605648480        0.46251425061219
H            2.78824913045208       -4.38872111852099        1.61675044533558
H            2.02313456959645       -2.06208059162341        1.45721508251015
H            2.58629364185191       -0.85074094095789       -0.35369438951182
H            4.49774073671848        0.24134688510693       -1.36219466827383
H            6.02230516390697        2.16241869160929       -1.43286359034584
H            5.37906504989879        4.28585534032232       -0.37408189470608
H            3.21771569907703        4.47612256574527        0.78130132144751
H            1.71640882339948        2.54952211235049        0.90255409830532
