117
 energy: -19.294351510630 gnorm: 0.000560355168 xtb: 6.5.0 (97a52f5)
C            2.53421247302858        0.53795961906293        1.07820576665685
N            3.53183492322968       -0.10585752207437        0.22316164381858
C            3.85887064133238       -1.49893870224337        0.52711328250685
C            4.07866766553049        0.54940663728133       -0.88646907064910
C            4.99979327102658       -0.08975862731761       -1.72412971376036
C            5.53444868213613        0.55299368391955       -2.80872817911298
C            5.17564573887747        1.86815290393537       -3.12192588698024
C            5.75202802921323        2.50840418035860       -4.28287263945595
C            5.36831747239287        3.69629966119471       -4.78676511955499
C            5.90538331680777        4.30831901334674       -5.98241092953966
C            7.06485441104246        3.84600349973043       -6.61232958318751
C            7.50013016502069        4.42823715805050       -7.76907583699115
N            6.80712268346670        5.45619829456071       -8.32383452133604
C            7.29872787703998        6.10045966280929       -9.55948712636100
C            8.01020909222153        7.38040648591771       -9.27191422388410
C            8.33156968325329        8.26995959257838      -10.28291300030801
C            8.98920851391649        9.45769350774613      -10.00671482964455
C            9.32970553035764       10.40915514869231      -11.10904171059717
N            9.88790424695705       11.68567813368034      -10.61453203334499
C           11.23059598591722       11.82012327509887      -10.46567684879244
C           11.75486468188357       12.97521715660174       -9.95987215208780
C           10.91800377334303       14.03176697067970       -9.58797853406142
C           11.49785648447343       15.24529115862941       -9.05629673392645
C           10.81374253012891       16.34685188530347       -8.69419548836209
C           11.39347329173746       17.55996369848826       -8.16234547425228
C           10.56289342579963       18.64277358977861       -7.85393892676116
C           11.07327814758893       19.80897071994958       -7.34848358136521
C           12.44639077179392       19.95890199969304       -7.12181865066315
N           12.97065403510197       21.15081764023095       -6.60637669968614
C           12.10542695612986       22.26406063661170       -6.21385649379659
C           14.41148992599526       21.34770110063329       -6.44085010251180
C           13.27737569631138       18.87525539430848       -7.42992838646167
C           12.76624295886041       17.70901677916292       -7.93572470433002
C            9.53982973733065       13.85759222219469       -9.74871634312221
C            9.04668756385565       12.68914230179931      -10.25622307965536
C            9.33230218705405        9.74067586957698       -8.69573270833544
C            9.03177746393907        8.86432555479710       -7.66838569604120
C            9.39710411735632        9.16848601792214       -6.25395506913212
N            9.18998051001769        8.00014975813553       -5.37385488559534
C           10.11805631590857        7.00980856528983       -5.35976756264008
C            9.92286269513884        5.89335732557495       -4.59855577513567
C            8.76965107189280        5.75923243563824       -3.82017106124932
C            8.60707714093343        4.59093694778104       -2.98309990626932
C            7.68441977542976        4.45189369376496       -2.01275421985288
C            7.55291607989706        3.30385576070458       -1.14406059973117
C            6.68371431927326        3.36117988369478       -0.04968615216668
C            6.53999972086156        2.29615010827966        0.79908152642244
C            7.25454533212674        1.10980646922809        0.59762515507773
N            7.10730576074242        0.02033600348238        1.46440162995327
C            6.30510426169580        0.11805176240524        2.68386917665198
C            7.83561231564738       -1.23106276892833        1.25434179791767
C            8.12183893079357        1.05162076010399       -0.49937485757028
C            8.26780571998054        2.11841738516612       -1.34617624684434
C            7.82301820243162        6.78671652463905       -3.87485491696695
C            8.04479978327381        7.88790326675265       -4.65229384132059
C            8.36942355706349        7.69149587421864       -7.97463654855765
C            5.69292646217763        5.94503672908065       -7.72243349600028
C            5.23665479124060        5.39069123831124       -6.56120947339933
C            4.25460360370569        2.50787084224505       -2.28547993801156
C            3.72214552867316        1.86643618574555       -1.19848496439641
H            2.24002548974094       -0.11420723077374        1.89671370522512
H            1.64723166878749        0.77531168319844        0.49530182775558
H            2.94134358705253        1.45270098618246        1.50261962122579
H            3.39662842935640       -1.81616097569736        1.45853290917295
H            4.93504852580691       -1.61541070527749        0.62743520489136
H            3.50047887353517       -2.14429596335693       -0.27158549142802
H            5.28993768176398       -1.10305615933913       -1.51392574155892
H            6.23928767068644        0.04107498271734       -3.44079425472428
H            6.51595750634919        1.95684608915223       -4.79846745882076
H            4.56154074810207        4.21998049550147       -4.30923960271826
H            7.62445282538765        3.03648946627627       -6.18011198624138
H            8.39542060495993        4.08537575839645       -8.25717813105421
H            6.44597450778108        6.27998833117296      -10.21852067454769
H            7.96386121655097        5.40986468206134      -10.08281062095690
H            8.06407987665866        8.03668597645180      -11.29777281843490
H            8.43903296694225       10.62786820714978      -11.70279587324513
H           10.05257354636468        9.95054370186897      -11.78777524763601
H           11.86689833222201       10.99876584913393      -10.74494798164113
H           12.81964492401269       13.07908185023408       -9.84355383485592
H           12.56681050066960       15.25005561377452       -8.95518129549561
H            9.74583743152455       16.34629564313329       -8.80678968177812
H            9.50356973638334       18.55143672836563       -8.02160869963826
H           10.40955498467534       20.62552578179496       -7.12878799441326
H           11.60943907984034       22.67442407816156       -7.09053450538074
H           12.67901059042136       23.05726128708549       -5.74074148109893
H           11.35731295093013       21.92008471406895       -5.50326976686456
H           14.92141302132560       21.16751508793018       -7.38448244869298
H           14.79461063981408       20.66383623832441       -5.68685277794396
H           14.63391344340917       22.36451292348381       -6.12680877176697
H           14.33577402237568       18.95833303974594       -7.26093574054508
H           13.43479553899933       16.89750934714206       -8.15840114249673
H            8.86022359897806       14.64087083008032       -9.46716094258838
H            7.98762720379534       12.53886154352192      -10.37244390919084
H            9.83995074131304       10.66077620971447       -8.47492351530485
H            8.80148811755463       10.00553170817426       -5.88266186351459
H           10.44480177231817        9.47151889843655       -6.18938893524959
H           11.00064850617410        7.12198234599589       -5.96479849784230
H           10.66483765604390        5.11413740702287       -4.58245593518665
H            9.32264178439791        3.80317128541260       -3.12675540703464
H            7.01042649560716        5.26720281034725       -1.82666276396652
H            6.12400804339883        4.26369884983947        0.12510730613223
H            5.86259619129666        2.36968263036884        1.63032058744717
H            6.68975086633995        0.91613093525789        3.31472372310664
H            6.33808068041975       -0.80930350476484        3.25026966008083
H            5.26860434305258        0.32772192114211        2.43154880191604
H            8.90115010614358       -1.06483718415817        1.39513886108839
H            7.65907721846852       -1.60160066790350        0.24733273984202
H            7.51040858441784       -1.99505902112742        1.95608715838208
H            8.68804784177025        0.15546520022093       -0.67737617923785
H            8.93453360327946        2.03536272657785       -2.18508701148600
H            6.90907134749016        6.70498325384238       -3.31521394346965
H            7.31743946212487        8.67836601976496       -4.71181545772321
H            8.12424250772947        7.00495900070727       -7.18359839063205
H            5.18498002213616        6.77720802790162       -8.17748639707463
H            4.34640303070907        5.77280016979828       -6.09282321346819
H            3.96745894542397        3.52350060471988       -2.48851531041859
H            3.01734437790730        2.38359943708706       -0.57304586371833
