60
 energy: -11.511860429758 gnorm: 0.000147165671 xtb: 6.5.0 (97a52f5)
C            2.49198490230558        0.56958588710581       -1.50082486762287
N            2.59974003946923       -0.02667411511995       -0.16870984676798
C            2.10276291772046        0.77199978633795        0.95229839952030
C            3.14772365095321       -1.30612345533101        0.02424125937764
C            3.13568697215747       -1.91689450184623        1.28399602802412
C            3.66395056732857       -3.16903471744157        1.46951885172119
C            4.23886810992907       -3.87849927712611        0.40825790777028
C            4.78291294349479       -5.19909678798902        0.64202458608431
C            5.45662278391655       -5.94000254290200       -0.26132187618459
C            5.97719097551188       -7.24931397719685       -0.01131388511408
C            5.83750364503091       -7.99837235439072        1.13089981360250
C            6.46720954040163       -9.25802211569837        1.07008702977083
C            7.11024873189538       -9.50732144797876       -0.11767044860444
C            7.83678181766867      -10.70100160760300       -0.45321891578590
C            7.96616707195623      -11.81828667737915        0.33499247252475
C            8.74170762854775      -12.84394408129591       -0.24247415420601
C            9.23133232086689      -12.53886451378353       -1.48847054107314
C           10.05538810566388      -13.35866374055788       -2.32312910892201
C           10.44845177875064      -14.61153318984580       -2.01543822062126
C           11.29946962619295      -15.45112400625010       -2.83106817074830
C           11.56235266676007      -16.76640238686062       -2.42976251302927
C           12.37206147111764      -17.58780400429677       -3.17203559407841
C           12.96868296721833      -17.13787219627436       -4.35599563632648
N           13.80728701367118      -17.97472439426558       -5.11122787291381
C           14.05556604430410      -19.36340645897453       -4.72188564770892
C           14.49472472727864      -17.49083873634362       -6.30928505420586
C           12.70531284626257      -15.82258565895713       -4.75759296835125
C           11.89305072117845      -15.00146755239891       -4.01684404714938
S            8.70204734000696      -10.94059891203803       -1.95154637690449
S            6.91697520335509       -8.13783591411145       -1.18447100071030
C            4.25240157715435       -3.26774839318629       -0.85165763481524
C            3.72051237560229       -2.01670721106170       -1.03762927809145
H            1.90592125814484        1.48618763550224       -1.47420226566918
H            2.00045731863396       -0.12220759943073       -2.18254790870752
H            3.48222626070549        0.80590522336637       -1.88606559964975
H            1.85354887418172        1.78246541754030        0.63418921642888
H            2.86316535153335        0.84303126444071        1.72796989014312
H            1.20878956462002        0.31329967840566        1.37097974027081
H            2.69583302083020       -1.39772615886587        2.11671122135777
H            3.64226234037532       -3.62138782839106        2.44635428164309
H            4.63783657393831       -5.60824516665057        1.62550905431290
H            5.63840372961302       -5.53660155960325       -1.24049980908851
H            5.29160934345682       -7.65918141759100        1.99700554419616
H            6.44999420876507       -9.96239167734526        1.88680310878806
H            7.51489884138525      -11.90310027340789        1.31101089501680
H            8.93853219600076      -13.77922584667859        0.25723275848143
H           10.36672433837039      -12.92422459749054       -3.25523875477868
H           10.10706694276909      -15.03570895624533       -1.08852622625032
H           11.11616818075349      -17.13179490127780       -1.52052456818440
H           12.55763649868856      -18.59282364536802       -2.83757530224595
H           14.55703488380747      -19.39696965495437       -3.75630899764048
H           14.68526151744095      -19.87049470881530       -5.45023220160560
H           13.11465142788637      -19.90646880583155       -4.65337839951508
H           15.10388791092980      -16.62227405159181       -6.06532036612948
H           13.76843098891567      -17.21353988465793       -7.07118155516217
H           15.14853764793967      -18.25522411666380       -6.72449295790360
H           13.14858250189506      -15.45143331358058       -5.66436008220847
H           11.71832799042769      -13.99410065273347       -4.34969190765529
H            4.67736013862983       -3.78939376158429       -1.69037384702167
H            3.74804106560976       -1.56904138546510       -2.01504764965677
