46
 energy: -9.699253020320 gnorm: 0.000669387357 xtb: 6.5.0 (97a52f5)
C            1.61832397403949       -0.97314384136340        0.58211292851692
N            2.61942891634722       -0.04979003843767        0.04784176096835
C            2.97986683956801       -0.21572662262733       -1.36038864897451
C            3.20706932478927        0.94449695078426        0.84707860540362
C            4.06139026541725        1.90542415224703        0.29509965734564
C            4.63361073209123        2.87667746187012        1.07584167903897
C            4.38833102946077        2.93931467278331        2.45181875744961
C            5.01415161938773        3.98022080290181        3.24235959217162
C            4.96294137820121        4.08112869977743        4.58332107187421
C            5.58718160669560        5.12545382191500        5.37284163540395
C            5.58029150007185        5.03152750229480        6.76813910355575
C            6.16200815397363        6.00112991355522        7.54578032577618
C            6.76691893188998        7.11728548517881        6.96880507374103
C            7.38765622545853        8.12878926789846        7.82354174647360
N            7.91440275725789        7.85248919798368        9.01005799212197
C            8.38825919710204        9.01006535522721        9.50848977944096
C            9.02560452734883        9.11660187227669       10.75872681065612
N            9.55279935910082        9.19799430410456       11.78983296398678
C            8.13796336874366       10.05770109996163        8.61573705923614
C            8.44219943738463       11.41634153031594        8.74492003577093
N            8.69163664433685       12.54668240928130        8.84152405345376
N            7.49246088799408        9.49190995611366        7.54740194385548
C            6.93837426799606       10.22839823488500        6.41266130462405
C            6.78728096931003        7.20888403605877        5.57677523447380
C            6.20839605024612        6.23849623878942        4.79674439608785
C            3.53224195506984        1.98010801930209        3.00403699419304
C            2.95761264123101        1.01006872916023        2.22257474354356
H            1.15078638114125       -1.54556952797617       -0.21602965310695
H            0.83723989913235       -0.41875710043432        1.09840943501026
H            2.08652871808277       -1.66744480572540        1.27698055302402
H            2.56295631946318       -1.13583454846292       -1.76405541865866
H            4.06184302123947       -0.26423804278887       -1.46497741760915
H            2.59911270623247        0.62099204659350       -1.94258245745094
H            4.26333380302302        1.88697704816670       -0.76079678624799
H            5.28714157993803        3.60662207905668        0.62969865671891
H            5.57637152376034        4.71323518925241        2.69427317035842
H            4.43564829850823        3.32521986273923        5.13479508206511
H            5.11436185881186        4.17934469103378        7.23255613732446
H            6.15594583412265        5.91481193643606        8.61848520604613
H            6.68575609123405       11.24134752673960        6.71886580125310
H            6.03226302642196        9.74576938183416        6.05271123694294
H            7.66904030356990       10.28103296783567        5.60835389061439
H            7.29493877365228        8.03523829482398        5.11259634217447
H            6.23237305589546        6.34168454971796        3.72691993782850
H            3.31190240370796        2.00621872927486        4.05596072556051
H            2.31036384156272        0.28042050963818        2.67518895798107
