62
 energy: -12.879892610847 gnorm: 0.000666182970 xtb: 6.5.0 (97a52f5)
C            2.73921718256291       -0.24466070201006       -1.51042144875007
N            2.69077890165607       -0.00784281316175       -0.06700482094771
C            2.02459776017295        1.21700426294033        0.37789716261231
C            3.25418720164242       -0.91249647404072        0.84656818634772
C            3.11496882207453       -0.72905275108741        2.22751727476836
C            3.65823488539091       -1.61882596169901        3.11853515047935
C            4.37530902574257       -2.73814671817148        2.68092746747998
C            4.93235585135550       -3.65591839770023        3.65494838629933
C            5.73363590403398       -4.70016810688648        3.37578672128948
C            6.28497904897118       -5.62049014363325        4.35303306598912
C            7.24893475075279       -6.55256021539423        3.95391782115323
C            7.79425304157705       -7.43599411540045        4.85221172797669
C            7.39500463326905       -7.42920657739228        6.18614480459331
C            7.97058160349216       -8.35888610420854        7.14634355328150
N            8.93465761519396       -9.24386680708728        6.86528436630615
N            9.21261332352944       -9.90114879626658        7.95016299692184
C            8.42600807749336       -9.44333846291151        8.93129003922111
C            8.44019746403802       -9.93302799512229       10.30220503165113
C            9.35256802317161      -10.90238136309537       10.70929948282905
C            9.35698754029340      -11.35488067349537       12.00576544467365
C            8.45117955324543      -10.86139453903360       12.94666286231801
C            8.47581962828742      -11.36119363273927       14.31665253864191
C            7.61577446318354      -11.02832626999867       15.31730765266254
C            7.88926393461482      -11.68305919165132       16.56839031885755
C            7.18836587842535      -11.54394070660782       17.77904033472264
C            7.60009755426163      -12.25254613126882       18.87846086311511
C            8.70299963555343      -13.10528485401046       18.80579662807784
C            9.39843339266986      -13.25188971204889       17.62991869937498
C            8.99235468957056      -12.53912483642091       16.50853929764954
S            9.66912079595457      -12.51504831813109       14.89815178567756
C            7.53906849978832       -9.88760819919622       12.53089995992039
C            7.53605221184485       -9.43266638102213       11.23424733044715
O            7.61545331100165       -8.45642865502663        8.45774295320903
C            6.43163718123039       -6.50980570946677        6.59063203646286
C            5.88746955721401       -5.62226519538371        5.69461943103369
C            4.51562034252831       -2.92196683775196        1.30037959869187
C            3.96928684078800       -2.03382685847917        0.40880315405444
H            2.15210888076017        0.49573486349416       -2.04973174701703
H            2.33353287245126       -1.22785873821829       -1.74130093720677
H            3.76741954613976       -0.19061494104254       -1.86321361865027
H            1.76766535298095        1.85292617690697       -0.46665021328230
H            2.68185113502062        1.78230529573645        1.03584129426083
H            1.10948954563273        0.97060962703643        0.91300753660054
H            2.56555624862640        0.11979752224072        2.59325917018774
H            3.53737685568595       -1.45945191926790        4.17643905707084
H            4.68825596683789       -3.45789887927957        4.68230381294583
H            6.01556939303501       -4.87274053634543        2.35365650597191
H            7.56770397069445       -6.56684208336015        2.92577960538983
H            8.53831313357080       -8.14609154634654        4.53660989344649
H           10.05635154868518      -11.28902193474116        9.99336616405427
H           10.06613214332968      -12.10287505544945       12.31355885878218
H            6.79658030230434      -10.33960459671883       15.20116464391599
H            6.33971505058846      -10.88446243679121       17.82837677726164
H            7.06788939443583      -12.15105559222944       19.80993724581563
H            9.01064663341264      -13.65378722980626       19.68083195363642
H           10.25089588669119      -13.90538518761938       17.56285368097046
H            6.83344567322216       -9.48693366490380       13.23651430268897
H            6.83260121258629       -8.68112881061316       10.91941378757450
H            6.12194945671100       -6.50593692353180        7.62153395454924
H            5.13917153602327       -4.92724133418112        6.03042844035210
H            5.05156015011029       -3.77710304325457        0.92970643321034
H            4.09453998393175       -2.19802408759018       -0.64650446159073
