37
 energy: -7.212873836444 gnorm: 0.000419040986 xtb: 6.5.0 (97a52f5)
C            1.32069688670039        0.21430401592315        0.80594024769454
N            2.53828559260418        0.05101836327007        0.01133695350070
C            3.13658223264108       -1.28408542308561       -0.00312130482499
C            3.10943475715360        1.12337435540343       -0.69278695735827
C            4.17164870318857        0.92222897031527       -1.58110510498370
C            4.72852011635061        1.97026081863030       -2.26781674304009
C            4.25956391888534        3.27761942298480       -2.10112691629461
C            4.87817959488970        4.35896364165966       -2.84212093487834
C            4.60282749520189        5.66625608165516       -2.69146443259458
C            5.22232885554448        6.74584511056975       -3.43940327387370
C            4.98397171202314        8.07211008154550       -3.06388752935146
C            5.55681264016146        9.11225854282216       -3.75342046967071
C            6.37996085554797        8.88612124873438       -4.83994440531163
N            6.97194216881759       10.04201640391954       -5.51067894987230
O            6.88331093139429       11.15198178530681       -4.95682218940837
O            7.54038267935467        9.89356780168497       -6.60449454291517
C            6.63568261703159        7.56208608224725       -5.24711175775443
O            7.44194388352956        7.25646118682782       -6.31989691999324
C            6.04866242766577        6.51786809696044       -4.53332963763245
C            3.19620216147955        3.47911502019063       -1.21462472066961
C            2.63620371240336        2.43029615730038       -0.53063529289410
H            0.91860357755374       -0.75149011955021        1.10389869689232
H            0.56001453503544        0.72761455716364        0.22138719787512
H            1.53560791590318        0.79160926150994        1.70280144194878
H            2.69944480213200       -1.91433348265212        0.76825604147428
H            4.20572469493390       -1.21646685255473        0.18688854723647
H            2.97219142109082       -1.75496638742316       -0.97005472160563
H            4.54777388584461       -0.07309563713694       -1.73578692892456
H            5.54361213568016        1.79219366730135       -2.94795154799907
H            5.63107059807844        4.07271204963565       -3.55289385672686
H            3.88249674305621        5.95856104908731       -1.95029653694687
H            4.34748612752159        8.27180627389338       -2.21916560697173
H            5.37569254547732       10.12985030505835       -3.45168227407878
H            7.73539433694571        8.09490533973972       -6.72359471835891
H            6.24626553261423        5.51782815242262       -4.86762205482776
H            2.80446414945648        4.46952550315137       -1.06970957795930
H            1.82684305610932        2.61533855548643        0.15261078110540
