50
 energy: -10.248740194915 gnorm: 0.000673669898 xtb: 6.5.0 (97a52f5)
C            1.60750872998785       -1.16078095068127        0.21993733971496
N            2.54287146035072       -0.07651065832214       -0.07879552561625
C            2.78580171978703        0.21330423566114       -1.49171313099798
C            3.17051907302135        0.65772772401412        0.94260315370012
C            3.97705828550731        1.76274295567569        0.64902587553041
C            4.58337113873505        2.48254929509064        1.64702595067899
C            4.42125658925950        2.13556052462570        2.99292956349263
C            5.07318651174295        2.92515672275457        4.01808359986373
C            5.08979290688520        2.63726330436676        5.33302779685214
C            5.72478275056729        3.43848059633631        6.36112667830096
C            5.74926389498413        2.96834515359152        7.69252129983850
C            6.32795430129774        3.69849493908659        8.68497721701465
C            6.92046204963253        4.95215888549541        8.41996215866203
N            7.48324115703534        5.65716356633840        9.42135792894588
C            7.99272490920882        6.80051359367551        9.05707446897844
N            8.04868389169353        7.38124224885540        7.86533190802673
C            7.50569327961681        6.71035573401281        6.86424589035747
N            7.51401615443377        7.25173253557731        5.57182491463913
C            8.06542195204638        8.46915601750663        5.13077331396855
C            7.96969484634684        8.82494676806115        3.78469335778813
C            8.50405443265731       10.00933660340111        3.32923265244496
C            9.14461195161918       10.86493283852385        4.20467617696736
C            9.24851056426131       10.52985854318579        5.54062243270392
C            8.71484926239796        9.34640112934784        5.99535778319760
C            6.90449373449571        5.43972758263112        7.09702656294707
C            6.30386300282408        4.66470010256816        6.09130496359127
C            3.61525146157407        1.02998129917874        3.28700493810169
C            3.00674785965365        0.31160745742240        2.28867329796354
H            1.11618180768297       -1.51482761689774       -0.68400243405700
H            0.83761177887330       -0.81232524632047        0.90534791180417
H            2.13724241970371       -1.99624239902447        0.67298687663224
H            2.31865183039688       -0.53281392201711       -2.13123556636398
H            3.85457248908822        0.20838030644855       -1.69566227961996
H            2.37791392061788        1.18888963506295       -1.74802538867545
H            4.11564096472981        2.05623426824925       -0.37597244710583
H            5.19778635167301        3.33103625207450        1.39889132775910
H            5.58858135446696        3.80348414703545        3.67656536801512
H            4.60485621546971        1.73921589429663        5.66817241276937
H            5.30178009852804        2.01500999957552        7.91544340520940
H            6.34273360665991        3.33100228389545        9.69582860236302
H            8.44395415271133        7.37234023266980        9.85639392556258
H            7.05652541173635        6.71421737701320        4.84656419017448
H            7.47121514908160        8.15890392607940        3.10234114048382
H            8.42256005941643       10.26999279785885        2.28662760975164
H            9.56219001473145       11.79152924703997        3.84611676951635
H            9.74792020706276       11.19515649978401        6.22580816820804
H            8.79465346537150        9.08273770491400        7.03152100219887
H            6.28271407723633        5.03354771039608        5.08661998351870
H            3.46035248627235        0.74245162422730        4.31126985011696
H            2.39717426686743       -0.53683947034064        2.54269700407685
