51
 energy: -10.862489753215 gnorm: 0.000226513821 xtb: 6.5.0 (97a52f5)
C           -4.28572426074952       -0.62516670966122       -1.75357779814505
C           -4.04022734932415       -0.23500848118189       -0.47672008385184
C           -2.76016316499462        0.24879492308383        0.03227838940517
C           -1.67542783709720        0.49647731623760       -0.81169841005801
C           -0.47678559973638        0.95062386132492       -0.30569457377919
C           -0.33193548735732        1.16803466108500        1.05027016637030
C           -1.39258472842690        0.93159452347716        1.90163191441883
C           -2.59194199839539        0.47896138305055        1.39791975051190
S           -5.47382330112284       -0.37076195013332        0.55502720120748
C           -6.53870760088523       -0.94098725582836       -0.78238258616802
C           -5.63362318139536       -1.05835465504222       -2.00349561517462
C           -6.24784535136859       -1.48550617748048       -3.14886737306756
C           -5.59708415035966       -1.66294711731252       -4.45033156236862
C           -4.30492200343839       -2.18320075228854       -4.55109416410599
C           -3.70253675172537       -2.34403229418956       -5.77892515107842
C           -4.37556359498939       -1.99355159198130       -6.93278016033923
C           -5.65722586755091       -1.48509297288022       -6.85532852173788
C           -6.26377298716090       -1.32333628149538       -5.62969070058861
C           -7.74103437318632       -1.74504904743117       -2.92005065453950
C           -8.31760831465709       -0.43926081361803       -2.37442866069506
C           -9.35615246531296        0.29825273188710       -2.91055762291678
C           -9.74789552118343        1.46840219439302       -2.28982074290011
C           -9.10868431430184        1.90221461516610       -1.14232681668848
C           -8.06957018085884        1.17059508608545       -0.60165579235871
C           -7.67226282516078       -0.00146400830760       -1.21521259854794
C           -7.82720224971972       -2.75597382488514       -1.77645737589628
C           -8.45930502871152       -3.98489412851569       -1.80016940172977
C           -8.44528837782253       -4.77721056449448       -0.66868276050961
C           -7.80504560853663       -4.34874474266303        0.48016246017190
C           -7.17067197484773       -3.12240976556115        0.51071065128371
C           -7.18028122837761       -2.32395981256552       -0.61648336124745
H           -3.54395957072797       -0.59718446277485       -2.53034369685948
H           -1.77879079616149        0.33789425718314       -1.87051182329078
H            0.35056006154526        1.13766373608977       -0.97088220456965
H            0.60732713535041        1.52188324977785        1.44322027845304
H           -1.28203524399769        1.10085744967762        2.96046250181353
H           -3.41955605637544        0.29386501698592        2.05993969603938
H           -3.79107840438682       -2.48656154023630       -3.65569598711225
H           -2.70500849651795       -2.74785017930881       -5.83990363472076
H           -3.90196292118653       -2.11866955999381       -7.89288791535182
H           -6.18279045346944       -1.21177235662053       -7.75583181218675
H           -7.25677148102072       -0.91269106631677       -5.56914932643231
H           -8.25819119373917       -2.09261228785572       -3.82320911065209
H           -9.84683894567402       -0.04515084300976       -3.80477262353852
H          -10.55652022974896        2.04808229985229       -2.70420918996105
H           -9.42180644804490        2.81779377778081       -0.66759445962448
H           -7.56162150398634        1.50095841891189        0.28711447713422
H           -8.95567091577416       -4.31090478561296       -2.69771756990774
H           -8.93751964080712       -5.73597047661197       -0.68150690870262
H           -7.80111207300844       -4.97504311945735        1.35734733563192
H           -6.66807514351452       -2.77945587674121        1.39777392896933
