33
 energy: -6.426849900731 gnorm: 0.000888056056 xtb: 6.5.0 (97a52f5)
C            1.13184904353486       -0.74568896048415       -0.01485583979052
N            2.44048880825452       -0.09155351390047       -0.03706513714996
C            2.98225504499307        0.24195843696941       -1.35466048101258
C            3.13468484139978        0.21104704320121        1.14649962229221
C            4.31856960775357        0.95737583867307        1.12216311178605
C            4.99829166269979        1.24571830382815        2.27831058368347
C            4.53372368854823        0.80461797600310        3.52231979895498
C            5.28484529308721        1.12287950458598        4.72044546469955
C            4.96491724431130        0.72519444822764        5.96508777139337
C            5.70654123303297        1.02180906768059        7.17711331323583
C            6.81341493056729        1.87054596889674        7.15562808970086
C            7.50021364776627        2.12668242448423        8.31218575628678
C            7.06298932044681        1.52799189159041        9.46872610360955
C            5.96188509393625        0.70862732272973        9.40986580163617
N            5.27671279398293        0.44277561071740        8.31123259542166
C            3.34760205957608        0.06238464514804        3.54805555362193
C            2.66734849965787       -0.22569953209121        2.39167663290725
H            0.66575079148381       -0.72016735752198       -0.99789050446536
H            0.46935230533390       -0.23624001388951        0.68213832085369
H            1.23876428111189       -1.78501883673747        0.28975021141223
H            2.42393257548062       -0.25839110936395       -2.14343864749758
H            4.02007298285003       -0.07781426859896       -1.42700004066874
H            2.92757943884246        1.31633583622539       -1.52004353094618
H            4.69463841052589        1.31797164583685        0.18155405407870
H            5.90771146940060        1.82048452575722        2.23650314556015
H            6.17133032357429        1.71249378173372        4.57850545168122
H            4.09234481356058        0.11584027049645        6.10404756766132
H            7.12694797893355        2.33166464515404        6.23692575207722
H            8.35813208366424        2.77915679111119        8.31595720859517
H            7.57339753572834        1.69808986940121       10.40266241636392
H            5.61271340800723        0.23724967109565       10.31548627785454
H            2.95892398923161       -0.28887292295177        4.48682034697172
H            1.76372479872450       -0.80670900400803        2.43924322919159
