32
 energy: -6.254888364438 gnorm: 0.000660288791 xtb: 6.5.0 (97a52f5)
C            1.32358302884467        0.78869730006958       -0.17810185017672
N            2.59850906139047        0.10231070963309        0.03243095875425
C            3.17876793190550        0.18947596690922        1.37276931270631
C            3.23408470331863       -0.60633424682070       -1.00079267652136
C            4.38234014601622       -1.36841999212843       -0.75611179336679
C            5.00072380312754       -2.06134203378593       -1.76529712622554
C            4.50944747118908       -2.02903403624092       -3.07486005294462
C            5.19373641523407       -2.77414338910931       -4.11255233847896
C            4.86028393281764       -2.78066136376637       -5.41528980904051
C            5.53513455675965       -3.52206235918612       -6.46064088170553
C            6.59732349444971       -4.36896021845986       -6.19251838193147
C            7.17308471727387       -5.02857621427710       -7.23760673531460
C            6.66034539214383       -4.80445904922957       -8.48549352437400
N            5.64515225375952       -3.98901330085646       -8.71069322505070
N            5.08813449687029       -3.36266917953230       -7.71812332914343
C            3.36071537112610       -1.26839892903155       -3.32037536810398
C            2.74047462675557       -0.57705204923061       -2.31041028339497
H            0.91088860580119        1.14528960302901        0.76353657538974
H            0.60146471428408        0.10763236364316       -0.62422855352133
H            1.46372079407356        1.64295900899634       -0.83756133368561
H            2.64452625522053        0.91407561316002        1.98405192780934
H            4.21823980371028        0.50568145979363        1.31048448852835
H            3.12900319770431       -0.77995327845815        1.86483354866505
H            4.77781252372452       -1.41915324247121        0.24256243786600
H            5.88152675205778       -2.64341853291683       -1.55424594157703
H            6.03905544830909       -3.35628760389129       -3.79539331950042
H            4.02824508348479       -2.18506379431494       -5.73961699331694
H            6.95894192992484       -4.51012550251157       -5.18963697396707
H            8.00124501452172       -5.70191608497010       -7.08677167877472
H            7.08824987378083       -5.30367562260471       -9.33998488889462
H            2.95280800949797       -1.22589039196219       -4.31415314926041
H            1.86326059092351        0.00560839052281       -2.52808904144867
