54
 energy: -10.484126741399 gnorm: 0.000969622144 xtb: 6.5.0 (97a52f5)
C            1.80834804603110        1.15248967275405        0.43332809866971
N            2.63026677181691        0.01704465889861        0.01228583775689
C            2.76897527794471       -1.08498171002102        0.96517149438221
C            3.25910298532231       -0.01161298424683       -1.24393414822888
C            3.94419196893513       -1.14937656698652       -1.68525006552057
C            4.55901701062694       -1.17513009365921       -2.91118697667469
C            4.52754855706243       -0.06451224814634       -3.76167402328784
C            5.18981456137664       -0.12879792121442       -5.04910926298424
C            5.34211376612542        0.90717758657505       -5.89494495719154
C            6.00089085794110        0.86285639291293       -7.18467951403433
C            6.44056857528164       -0.32817331363976       -7.74207890009119
C            7.05225521865861       -0.27846444824213       -8.95972651288248
N            7.24748808905286        0.83941561185452       -9.62439877233696
C            6.79471443265917        1.94407251876291       -9.02073590133814
C            6.99246633781998        3.20244496569217       -9.70879720400458
C            7.59568277429895        3.29470225526984      -10.90536191572329
C            7.83986169846569        4.51690183168398      -11.64112311701588
C            8.42774579857101        4.45397082886360      -12.90879129717963
C            8.68070151639115        5.59222235006534      -13.63112684331070
C            8.36158093592542        6.85674489776688      -13.12299698387929
N            8.62096730922798        8.02378331789819      -13.86156669268100
C            9.10719497840066        7.96819785944565      -15.24051320890977
C            8.42739154895520        9.35550217438296      -13.28646685085883
C            7.77383468049611        6.91860440823276      -11.85403956719768
C            7.51819314020393        5.77991667378769      -11.13260177031496
N            6.17501397030890        2.01306997200750       -7.83694489186691
C            3.84119151954466        1.07292609733989       -3.32187797856169
C            3.22298720403508        1.09730745665063       -2.09721120855135
H            1.28527479397012        0.93489151861758        1.36236056985302
H            1.06213607320804        1.37635185917701       -0.32649189162427
H            2.43387212295927        2.02928371406062        0.58838752090324
H            2.34223015771159       -0.82362136043327        1.93128964233984
H            3.82106775749022       -1.31921645266201        1.11582800219256
H            2.25679358896744       -1.96914604083574        0.59109872552585
H            3.98105632322190       -2.01936603734089       -1.05465716289157
H            5.08045310529368       -2.06078787507194       -3.23134136032344
H            5.60140789092187       -1.08253886423918       -5.32358603158300
H            4.97135956729069        1.87148128576027       -5.60316238325045
H            6.29399517795401       -1.26689414864445       -7.23927148268556
H            7.40260615251505       -1.18984516704130       -9.42082871390178
H            6.63157644312562        4.08532804637768       -9.21718542239584
H            7.93188358804614        2.38092108754563      -11.36002047967756
H            8.68325421006968        3.49121919795102      -13.31694211074816
H            9.14091799472870        5.51479140891149      -14.59976676471969
H           10.13286978991526        7.60539510462016      -15.26070656338029
H            9.08054906866778        8.95190922790925      -15.70446955886044
H            8.48152393307587        7.30243466944764      -15.83179966831078
H            8.92363991205732        9.42206065756407      -12.32042882560290
H            7.36583045128055        9.55561390453697      -13.15666347546805
H            8.84691382283850       10.12497579801543      -13.93150895334544
H            7.50997703369116        7.87665066439848      -11.44355548033715
H            7.06758640741993        5.86174924460015      -10.15996936622141
H            3.78744187740677        1.93988528816262       -3.95496969051246
H            2.70709322466923        1.98623102391103       -1.78172594113555
