32
 energy: -6.288206418679 gnorm: 0.000578614302 xtb: 6.5.0 (97a52f5)
C            1.15672341797047       -0.60704905018897        0.46429896779221
N            2.48378152135516       -0.13389346531508        0.06976945172757
C            3.06775482230100       -0.73648232221606       -1.12874701766765
C            3.16016713036248        0.85703682741671        0.80070993978627
C            4.36693322075622        1.39789386665394        0.34265899450118
C            5.02503127280594        2.36656391302064        1.05647531201564
C            4.51626814936544        2.84643739402479        2.26835472367641
C            5.24380328279967        3.86735314427854        2.99413397215687
C            4.89267209674286        4.37001153367393        4.19245057986788
C            5.61056165786073        5.38866402964270        4.93076642572302
C            6.75015348271779        5.99912003991408        4.42494779538988
C            7.36370237265271        6.94986624218647        5.18728053631609
N            6.92234011705417        7.30873348606188        6.37614433167974
C            5.83717160852330        6.66700359598887        6.75546964118778
N            5.14347217691736        5.73837359127885        6.13315052045258
C            3.30901910177780        2.30690978067930        2.72658077262081
C            2.64949635613652        1.33944935431680        2.01137972154778
H            0.72941955546211       -1.25444665178077       -0.29850157765293
H            0.48455752895069        0.23780768712448        0.60254831335892
H            1.22195548234656       -1.16812330911755        1.39463831028245
H            2.48464507465986       -1.59354174881952       -1.45994324752965
H            4.07914659320849       -1.08023398669633       -0.91918558674965
H            3.09768408810644       -0.00669853119102       -1.93591485676403
H            4.77786513995142        1.05437650426215       -0.58972402538823
H            5.95129173427364        2.77011426289196        0.68465498643374
H            6.13777819375250        4.23382465893195        2.52473073451722
H            4.00950726478397        3.99415002606513        4.67275154679981
H            7.14003235695391        5.73755044770378        3.45808912478268
H            8.25214364231084        7.44473405311287        4.82175652381062
H            5.45660687180063        6.94730651588049        7.72867628177933
H            2.88712761849037        2.65515034149007        3.65197919590174
H            1.72773706684746        0.93602776872175        2.39063960764387
