45
 energy: -9.297480423939 gnorm: 0.000423848760 xtb: 6.5.0 (97a52f5)
C            1.50224783579235        0.76708402366129       -0.70878610841368
N            2.46101155450301       -0.07323185924872        0.00963645441225
C            2.64309935573843        0.20530477133645        1.43455898667740
C            3.17914844948564       -1.09152766163431       -0.63889287963903
C            4.02414999659926       -1.94882671241340        0.07448590208470
C            4.72783747079517       -2.93983461021606       -0.56059323412996
C            4.62990169002965       -3.12654285412051       -1.94324444285319
C            5.39144984061201       -4.18262559687198       -2.57880968098385
C            5.48600556515549       -4.39091593938734       -3.90314175607412
C            6.25463938445780       -5.45249964982848       -4.50087272063184
C            6.94802571846689       -6.47859225133287       -3.83965553206117
N            7.54247500859264       -7.26836351756955       -4.72100635539269
C            7.24264411086510       -6.76421727367624       -5.92267900533553
C            7.70555791608334       -7.32585197775474       -7.16149479164624
C            8.47939180805180       -8.42291861624811       -7.20000016580631
C            9.00556944106132       -9.05800400572536       -8.39087323123015
C            9.75260138519559      -10.23235294379231       -8.27008816404502
C           10.26848827321776      -10.86084792565418       -9.37801070303134
C           10.06106056272439      -10.34090048952063      -10.65123556305477
C           10.58719727747256      -10.98367804810159      -11.78148891970037
N           11.02260499373287      -11.51784212597352      -12.71646654170728
C            9.32011159186548       -9.17054501349009      -10.77872627627687
C            8.80153183206565       -8.54021811470319       -9.67244605519011
O            6.44732918108621       -5.64692843527848       -5.83857257430218
C            3.78361104467292       -2.27168588583803       -2.65696695331891
C            3.07733749018223       -1.28204068861762       -2.02157349689772
H            0.94677653566104        1.40215680377732       -0.02222316181371
H            0.78726191075812        0.14448799300737       -1.24272222919918
H            2.02518936031022        1.40344791711735       -1.41981032485683
H            2.10119005638552        1.10068176840109        1.73098284498173
H            3.69766848825662        0.36357954689567        1.65114692343416
H            2.27635543330572       -0.63044532005668        2.02703365013684
H            4.11840819061989       -1.83035384108698        1.13897292290620
H            5.37325305948067       -3.58757284721250        0.00758361753618
H            5.93237215111671       -4.84182927554445       -1.92408392803998
H            4.98337962251700       -3.73113297430718       -4.58413888934658
H            7.00167452205570       -6.62545629790458       -2.77195043001069
H            7.40848061402240       -6.83119928296244       -8.06602629661572
H            8.73520993959040       -8.87520901137112       -6.25864977387604
H            9.92122037849242      -10.64666316203519       -7.29093246190925
H           10.84123727394890      -11.76642564859505       -9.27235109235662
H            9.15824182761124       -8.76300076563737      -11.76212262937525
H            8.23502321815320       -7.63503534672798       -9.79708960676319
H            3.67696073586810       -2.39544553463530       -3.71957846492078
H            2.43932790333428       -0.63469131911882       -2.59599686136477
