43
 energy: -9.178347476631 gnorm: 0.000775471681 xtb: 6.5.0 (97a52f5)
C            1.15703402388039       -0.47861189505805        0.20191862435407
N            2.50592579209825        0.04489691790893       -0.01308072625119
C            3.07246285581803       -0.12543044547371       -1.35107451611956
C            3.23235754885588        0.65866745115235        1.02239882310076
C            4.45509120709014        1.29044623070329        0.77254590125400
C            5.16653595607954        1.88144511669411        1.78523129124104
C            4.69910603522737        1.86767856452013        3.10286395831771
C            5.48748403728210        2.48698216951223        4.14992482584087
C            5.23171392538514        2.41121160699351        5.46628295969961
C            6.04886632533420        3.01972378208232        6.48652210373831
C            7.15161954508796        3.86417240200389        6.30706161206963
N            7.65452228488063        4.21042474455415        7.48541284244823
C            6.89590176558000        3.60634080440987        8.39775285932819
C            7.11277857046510        3.71660624983648        9.78281888736897
C            7.30887841696813        3.78305591525391       10.98789396767085
C            7.54848546087691        3.84017434048489       12.37239734479720
C            7.66298252326062        2.67319475773818       13.12117775100877
C            7.90460235080040        2.72564182004278       14.47503722596444
C            8.03970513608218        3.94728193434302       15.12433742989513
C            8.28915541674378        4.00064043588111       16.50467732002935
N            8.49702313510267        4.04485044024582       17.64632525668214
C            7.92431764615022        5.11447875299723       14.37817340338460
C            7.68278683828922        5.06182211607281       13.02419423037343
O            5.88936134363743        2.86477436951754        7.83327918086454
C            3.47347064097254        1.24228816582190        3.35241496932770
C            2.75909582400686        0.65524989331249        2.33895739750528
H            0.69246894734446       -0.75807635323826       -0.74095400283063
H            0.53363048095477        0.28012359027881        0.67159744975499
H            1.19653905020047       -1.35816859098236        0.84175552792702
H            2.45514069159816       -0.78722585858992       -1.95443061760564
H            4.06599931023039       -0.56414353201253       -1.28182285341151
H            3.13919389360497        0.83800005433206       -1.85259256363503
H            4.83676730373247        1.32110604091426       -0.23213838377768
H            6.10575923178407        2.36186039171017        1.57093573147656
H            6.35964113050818        3.03090625728017        3.83469655799513
H            4.38967525468458        1.84406889168329        5.81430719285587
H            7.55275427350478        4.19969160157233        5.36284260025590
H            7.56117611625141        1.72346730437586       12.62438665304182
H            7.99321065012712        1.81793260515154       15.04732883582770
H            8.02818543029907        6.06372119030669       14.87559140282091
H            7.59659992537310        5.96996689668900       12.45235066168075
H            3.07925345630882        1.22580118724968        4.35249521782890
H            1.82457024752901        0.17202168170307        2.56083566587924
