32
 energy: -6.269787980860 gnorm: 0.000554687200 xtb: 6.5.0 (97a52f5)
C            1.18257433811607       -0.43343960742728        0.24432349418803
N            2.54257407809350       -0.00276595387322       -0.08100676070101
C            3.09557271902354       -0.47358168983752       -1.35098636262555
C            3.27324744520460        0.83833095312964        0.77468318198400
C            4.51173213939704        1.36429127530895        0.38968032447209
C            5.21984998124741        2.19162943060234        1.22340777317467
C            4.73195234793903        2.53736737513696        2.48818811310431
C            5.50587063060856        3.42239951490382        3.33536795441932
C            5.17565758637712        3.78275266011526        4.58818862613564
C            5.93134095158637        4.67325534713447        5.45103211506648
C            7.07147787794024        5.33788003024215        4.99101574652270
N            7.80332239373893        6.15335288496082        5.71272425523774
C            7.35271395676888        6.29510004919042        6.94325353356161
C            6.23132792444414        5.65661580729819        7.41945344866378
N            5.49318638358590        4.83906811086168        6.70190970140060
C            3.49486928020448        2.01000869768358        2.87494925588833
C            2.78525438964035        1.18420962597812        2.04017549335690
H            0.72057523015505       -0.94200934241241       -0.59925120723323
H            0.56771159404087        0.42885506585111        0.49444087936447
H            1.20007572957782       -1.11742274463579        1.09039493406155
H            2.46491877752656       -1.24366368432928       -1.79051205792165
H            4.08398687775663       -0.90027269738017       -1.19283198549219
H            3.17155974197415        0.35345754264505       -2.05403257243336
H            4.90581717252970        1.12578650890871       -0.58195873656434
H            6.16838823055676        2.58914798608399        0.90517369145601
H            6.41650281790464        3.80282330778660        2.91147723405654
H            4.28104545254900        3.37980382511983        5.02327384257387
H            7.38893867609497        5.19363826562081        3.97177437691197
H            7.90839414452005        6.95448397477679        7.59420569673170
H            5.92121623832900        5.82080116759102        8.44082450153161
H            3.08816826758789        2.25701656679966        3.83890611654225
H            1.84019662498037        0.78718974616478        2.36507539256436
