60
 energy: -11.872736143840 gnorm: 0.000766771697 xtb: 6.5.0 (97a52f5)
C            1.25890788670397       -0.42853103784837       -0.24040717473162
N            2.56095106990917        0.08397328252827        0.18809635073790
C            3.29601216923089        0.90323795911547       -0.77616878347203
C            3.06363795254791       -0.16784088789271        1.47493981694218
C            4.25967220085579        0.41391384129666        1.91266653030382
C            4.74713356948883        0.17029339960155        3.17121542781986
C            4.06806849843033       -0.66964476432148        4.06022505256467
C            4.61215028840942       -0.90135229664031        5.38031971651212
C            4.09581327190791       -1.71727459190212        6.31494761985414
C            4.69683418750862       -1.89170250116656        7.61811801455262
N            5.80963264649002       -1.16801003634081        7.87058219075751
C            6.37646636615849       -1.31236933802266        9.05418418086223
C            7.56174940131850       -0.54385701145414        9.33265509935300
C            8.07817930540116        0.32111973697604        8.43969152517495
C            9.25747967566741        1.13577309714283        8.62630945418467
C            9.64028486150220        2.03468747169922        7.62414955163726
C           10.75295335774233        2.82375788576653        7.76577791616529
C           11.54686948404821        2.75554113249366        8.91744535444935
N           12.68687068901985        3.56282308371035        9.06232176218777
C           13.02025369734954        4.60584211432235        8.09164434441133
C           13.60639380953980        3.39854527676927       10.18795516548159
C           11.16419750414713        1.85435644136036        9.91890916126653
C           10.05027565521274        1.06620082842420        9.77848079471302
C            5.82248328391780       -2.19972718624734       10.02268998485280
C            6.36233232340833       -2.40723266522120       11.30800015231904
C            5.77370544271509       -3.27482809662781       12.18411373298083
C            4.62359539077761       -3.97114144630044       11.81669002291276
C            4.07852330000815       -3.78834572228512       10.57837670955704
C            4.65998732743751       -2.90055610631612        9.65081576000369
N            4.09486326530290       -2.74131113898545        8.43435870341370
C            2.87312722224135       -1.25275731334767        3.62446565468924
C            2.38437194868051       -1.00728449603327        2.36634277258222
H            0.99057991643522       -0.04746773818531       -1.22360399360741
H            0.48662455980033       -0.12079566265155        0.46207816521644
H            1.28304828342484       -1.51541417132912       -0.28998038685164
H            2.81710949076633        0.88590000388324       -1.75311566273361
H            4.30961742060168        0.52442268080171       -0.89348184231550
H            3.33822167538243        1.93510501890998       -0.43261509111411
H            4.79978210749203        1.06816520328997        1.25202310751805
H            5.66805109255450        0.62885784862695        3.48875170558992
H            5.51324007219189       -0.37199437409094        5.63230430904544
H            3.20354139700865       -2.27714793386364        6.11053648348046
H            8.04194647443095       -0.66163585146145       10.28350085600132
H            7.56497607053685        0.42223591142557        7.50042305207444
H            9.04460306481331        2.10194870351616        6.72961418608166
H           11.02796653745168        3.49967145012527        6.97585837563742
H           13.34683323526521        4.15520470963283        7.15606787810960
H           13.81835844442576        5.24561599399126        8.46360451221248
H           12.15079973456085        5.23248084096349        7.90067207382135
H           13.87973008121030        2.35068578443274       10.29961546147790
H           13.13635522981590        3.74459149225328       11.10689162932215
H           14.52059802377491        3.96841167196006       10.03236510839496
H           11.75019251061980        1.78886592766789       10.81830503949764
H            9.78562498784087        0.38228323932400       10.56503196764703
H            7.24799384500662       -1.87858753927220       11.60940741053979
H            6.19774233150841       -3.42334097862601       13.16386446162700
H            4.16584164334214       -4.65471934267266       12.51294550843036
H            3.19099305904222       -4.32224230048249       10.28752640981291
H            2.32633525605912       -1.90039032161951        4.28604337331084
H            1.46498640156458       -1.47030918079902        2.05528333672497
