104
 energy: -21.765113960008 gnorm: 0.000602225644 xtb: 6.5.0 (97a52f5)
C            2.12963508678110        1.12791196098103        0.08350059137369
N            2.56689647505393       -0.25866137511961       -0.08379360456497
C            2.37892333492220       -1.15163696198691        1.06064387942003
C            3.12665825919662       -0.71451278200350       -1.28980455233624
C            3.43873780189894       -2.06633271451395       -1.47774396879620
C            3.98448234838722       -2.51051423048703       -2.65514598190659
C            4.24946117017267       -1.62845520372379       -3.70826089846408
C            4.82306597455843       -2.13614420584118       -4.93606369283828
C            5.14778445583641       -1.40839857589894       -6.01737176178394
C            5.71071866154536       -1.99619676306461       -7.21442369949710
N            5.98201646365711       -1.15212093760038       -8.21461619763567
C            6.48880131447892       -1.69342789227695       -9.32556482947250
C            6.78755459635509       -0.80959103303958      -10.43552986465054
C            7.21426029950220       -1.18888790059751      -11.65385573267690
C            7.50637726957604       -0.29115922419805      -12.75443471728520
C            7.84205434833745       -0.82037151859610      -14.00538326758568
C            8.12095925175355       -0.00059679307290      -15.07006551380140
C            8.08306955284189        1.38698789378032      -14.93443924242974
N            8.37547801484810        2.24192085168756      -16.04447434332853
C            8.01373224683774        1.84364469682074      -17.37664800247040
C            8.85122137088067        2.11941161342401      -18.45487253107646
C            8.50123487501039        1.74099270605595      -19.73163377941679
C            7.30864580041747        1.08090130971301      -19.95617812208435
C            6.46672349957541        0.80024422806509      -18.89756232536109
C            6.81461778240169        1.17774045082445      -17.61998155458950
C            9.04280160137400        3.49671737035281      -15.83494921014974
C            8.70749182625005        4.61711536713098      -16.59159211658844
C            9.35450119590717        5.81676542611244      -16.39629396451525
C           10.34844426738367        5.92064215608718      -15.44256015049168
C           10.69344513794387        4.81861902185512      -14.68445850064784
C           10.04793209732979        3.61800217255904      -14.87816120988581
C            7.75376787028357        1.91927884284575      -13.68793099116600
C            7.47057404420030        1.10151279584777      -12.62218065394761
C            6.72044658017898       -3.05337342733150       -9.40176845886543
C            6.41706464506208       -3.85181151923845       -8.31610319209013
C            6.64339118871178       -5.28367468032339       -8.33698152228244
C            7.23006967067324       -5.97559374130400       -9.33047616149716
C            7.45078432195606       -7.40864577135288       -9.33449446816820
C            8.16359643048215       -7.99297633622149      -10.38712082336084
C            8.39555761449986       -9.34510714901297      -10.42157326983749
C            7.92206668655717      -10.17864859972440       -9.40862509793732
N            8.16378997516630      -11.58874969210612       -9.44510349133056
C            9.38497733667147      -12.09784888937250      -10.00522133522423
C            9.38911536286540      -13.26967463409064      -10.75818727150271
C           10.56067475460267      -13.75853869889976      -11.29139250109606
C           11.74999083465615      -13.08752892083772      -11.08241069097902
C           11.76309913263649      -11.92485078628325      -10.33657531517702
C           10.59278882173674      -11.43401955035410       -9.80255296388359
C            7.18493795766293      -12.50365816065976       -8.92670194380980
C            7.57566468552937      -13.65166055174914       -8.24156277555836
C            6.63681666726392      -14.53166783575232       -7.75158634449276
C            5.29067981477878      -14.28264389420238       -7.93683520449208
C            4.88675373612680      -13.14889646655864       -8.61484921420378
C            5.82382212338802      -12.26774366726575       -9.10596622477524
C            7.20602157365112       -9.60145408091890       -8.35992236227865
C            6.97548249491410       -8.24863298543747       -8.32113790758813
N            5.89972801495722       -3.31876721699959       -7.20627384798915
C            3.93852950481173       -0.27683786006883       -3.52250929196647
C            3.39121706720553        0.16713317516225       -2.34503478564624
H            1.60079766376342        1.26180345133116        1.02507927471679
H            1.45420669447256        1.40749236528542       -0.72334083612919
H            2.99013784825945        1.79479427230305        0.07536208649792
H            2.06900765278693       -0.59725640270706        1.94431379180779
H            3.31169745193278       -1.66167607627231        1.29527857724743
H            1.61437532892901       -1.89318869104665        0.83471991045251
H            3.23920773834218       -2.76809248181753       -0.68750866954825
H            4.21573984592417       -3.55477986878286       -2.77993952692800
H            5.00208472272306       -3.19506540652644       -4.98384571769500
H            4.99197484415402       -0.34673221556574       -6.02187417746976
H            6.62873234947822        0.23473824842748      -10.24478943655417
H            7.34109911918650       -2.23675048756452      -11.85370936266576
H            7.87859691840905       -1.88949431074401      -14.12715103371377
H            8.38624166976356       -0.42102875089719      -16.02425719031575
H            9.78217997079812        2.62729442411709      -18.27296272126572
H            9.15891601326491        1.95975924658331      -20.55701639686098
H            7.03522383207661        0.78563786777685      -20.95603449734566
H            5.53547867289162        0.28636700019870      -19.07203524643130
H            6.15811200318898        0.97055602674546      -16.79301316046952
H            7.92827480491680        4.53228762388495      -17.32871806062366
H            9.08509864666137        6.67614512429804      -16.98836767337791
H           10.85487962407828        6.85984901068789      -15.29080245426153
H           11.47024297245897        4.89821776765106      -13.94153267889012
H           10.32061466088060        2.75374266868875      -14.29816166030645
H            7.71334502990310        2.98875798389885      -13.57657852105123
H            7.22478759638243        1.54173030851369      -11.67268724633091
H            7.13334830342166       -3.48376146436383      -10.29226686766827
H            6.31775101347376       -5.81122237987528       -7.46059928527022
H            7.58305532062216       -5.44162934811227      -10.19322180878321
H            8.53509876201547       -7.36430524760837      -11.17827024728757
H            8.93821150213295       -9.78224262395194      -11.24137802817325
H            8.45881838341448      -13.78438704130152      -10.92349296842987
H           10.54965148108139      -14.66562095396220      -11.87340321730223
H           12.66654379952036      -13.47095942404899      -11.50016628348715
H           12.69089460901695      -11.40175659262426      -10.17143498177865
H           10.59887422890325      -10.53428173030465       -9.21244677387030
H            8.62531153261291      -13.83693934853398       -8.09451576256031
H            6.95259604047141      -15.41598164237264       -7.22248062954063
H            4.55648056349511      -14.97209474822861       -7.55311993180592
H            3.83675895720523      -12.95471646944267       -8.76151075516953
H            5.51523170362648      -11.38910006455048       -9.64494993115441
H            6.84456811116992      -10.23598190588514       -7.56966916308390
H            6.41646351858158       -7.83390162358572       -7.50180840087428
H            4.12865341014232        0.42554648201726       -4.31436331909005
H            3.16608979128228        1.21201861707625       -2.22558204045003
