56
 energy: -10.116723414970 gnorm: 0.000551011081 xtb: 6.5.0 (97a52f5)
C            2.03020139743413        1.67522221458110        0.28296894021563
N            2.65352418897603        0.41360017483905       -0.11678308428530
C            2.58723578266207       -0.68785906067483        0.84398993657390
C            3.28842740775706        0.26646442967564       -1.36554494630841
C            3.75782470655229       -0.97954869374053       -1.79515722586970
C            4.37281422446422       -1.12365261133408       -3.01220382512418
C            4.55575937545548       -0.02907311102735       -3.86613207381038
C            5.20574247888923       -0.22290196741482       -5.13740648311326
C            5.49330956591059        0.74434728686062       -6.03568114786756
C            6.13045778943470        0.56285123741406       -7.29887358971381
N            6.34174063838305        1.66057360652376       -8.02609520371090
C            6.91287548578727        1.52248943612660       -9.22540292087919
N            7.10747250176639        2.70537314436031      -10.00196952718196
C            7.31023193907512        3.97544050427198       -9.29537920473201
C            5.97511755321734        4.69250955024237       -9.10996794409015
O            5.31981451287261        4.89270623074550      -10.35771501890153
C            5.09302598196037        3.66713803243872      -11.04683450376054
C            6.39386558592621        2.89844524106755      -11.28108577285322
C            7.34163110153885        0.27530311791590       -9.73331573359754
C            7.13784358687793       -0.84700241089914       -8.97671373680082
N            6.51132816472735       -0.71732497308361       -7.74276237735885
O            6.30146739915003       -1.75578312462125       -7.03571787325295
C            7.59357567813452       -2.21661753645324       -9.37693756598616
C            8.19272887885280       -2.30419544118668      -10.79270198873717
C            8.98159212797965       -1.03609139633030      -11.14356736160183
C            8.07365945320818        0.19972769172881      -11.04488567199411
C            4.08631068353154        1.21870597811954       -3.43643072475868
C            3.46924996808915        1.36038664771381       -2.21931549952641
H            1.44208504550626        1.55045912344878        1.18984936141628
H            1.36437508755651        2.02904869728354       -0.50194940160542
H            2.79509560982393        2.42685376503758        0.46850860041547
H            2.22704878476241       -0.34244993589629        1.81075870985708
H            3.57631892488963       -1.11772700587690        0.98940932905593
H            1.91227436850002       -1.45997208700280        0.48043941419724
H            3.62355792756706       -1.83932075029265       -1.16358736630030
H            4.72493110141898       -2.09186464595938       -3.32438338717404
H            5.48355573358545       -1.23045357181026       -5.37966121562090
H            5.23035789513726        1.75829779899570       -5.79795265163532
H            7.99707033845232        4.59324554288620       -9.88204832600872
H            7.79888958440348        3.77340751680259       -8.33600854715520
H            6.09952592792397        5.67365561684787       -8.63365896327496
H            5.30529858567675        4.10370059633917       -8.47260268830484
H            4.58588914872725        3.90590884923823      -11.99072757305312
H            4.39406018408830        3.07310073624866      -10.44667029812486
H            7.04770496654691        3.44839821855820      -11.96432422095221
H            6.19247592638457        1.92668715303919      -11.74015236584107
H            6.74582548031869       -2.90514370283784       -9.27408843063166
H            8.33172939366351       -2.55595940295482       -8.64084741056535
H            7.38496679908074       -2.43749460354154      -11.52282059349898
H            8.82750111148834       -3.19536864021795      -10.89209710380509
H            9.43059571716452       -1.11613326606355      -12.14326477796878
H            9.82253914007378       -0.92640815686012      -10.44801007875226
H            7.34208247731036        0.17002099153266      -11.85974979803798
H            8.65393469704700        1.11944499026941      -11.18950909799909
H            4.20636433875791        2.07929680419898       -4.06939656556306
H            3.12462754552941        2.33077517075477       -1.90969242405982
