42
 energy: -8.502725519502 gnorm: 0.000545315182 xtb: 6.5.0 (97a52f5)
C            1.76289987250685       -1.20852483242257       -0.06924129215701
N            2.65065319014960       -0.04527812017481       -0.06082829079578
C            3.01646099562896        0.51212921160493       -1.36386735717609
C            3.15143388991348        0.49151519840640        1.13593863808273
C            3.92984878902569        1.65566447468422        1.13753952272329
C            4.41703963013061        2.18071194881204        2.30675545463295
C            4.15526015473850        1.57113880027852        3.53942055719659
C            4.67899836133415        2.15826743345500        4.75096055905492
C            4.51453702446728        1.67944062330014        5.99974522768601
C            5.06144500592310        2.32878404035674        7.14256597130705
N            5.74937574023507        3.44262594466165        7.09422407902481
C            6.15288281496051        3.83909997204641        8.34658248502453
C            5.76641476025575        3.00976666886447        9.39792983516523
C            6.11420959513687        3.30048530710802       10.72591038593005
C            6.84411125943082        4.41434928670027       11.00601481412870
C            7.26723522214537        5.29843705960052        9.97253851344588
C            8.02195011259863        6.45619421946755       10.24717730057034
C            8.41680645616969        7.28741444616536        9.23728437639694
C            8.07900510182025        7.00277590511933        7.91294568186621
C            7.34776848525218        5.88824266989928        7.61296795056121
C            6.92665500837597        5.01694358409773        8.62855030821829
S            4.85481426833989        1.67573482423231        8.76979450712519
C            3.38087905267025        0.40474267794837        3.53888800954318
C            2.89223731864141       -0.11926852096330        2.36929949138578
H            1.34902752873551       -1.37898513019465       -1.06114138817633
H            0.93247946611809       -1.05106349437598        0.61621296690095
H            2.31114755915643       -2.09875774001469        0.23259368308222
H            2.63640192228749       -0.10507927190720       -2.17544639311152
H            4.09966374766324        0.56194884615205       -1.45869194562341
H            2.60247014369724        1.51299753006987       -1.47228265529707
H            4.14242347451573        2.14805457924050        0.20545566300311
H            5.01155849621595        3.07814147450723        2.28564194550002
H            5.25112371379254        3.06218266397771        4.64315076794094
H            3.95530466823753        0.77736804529977        6.16465315712919
H            5.79646359717487        2.63339912965050       11.50842190021861
H            7.11344830804948        4.64202403128476       12.02272117865760
H            8.28393242005250        6.67800599074174       11.26734813234429
H            8.99335674938570        8.16982385461982        9.46187376060046
H            8.39728216822910        7.66632975602352        7.12566107333091
H            7.08356561177904        5.66194111888025        6.59490498019337
H            3.16430081154618       -0.08882373347631        4.46923777828486
H            2.30417750351300       -1.01919047372164        2.39702866607811
