49
 energy: -10.238774520273 gnorm: 0.000750112200 xtb: 6.5.0 (97a52f5)
C            2.03435163170404        1.96526462663875        0.20808950760420
N            2.76106566845150        0.69511571691516        0.21508883976043
C            2.94098998819741        0.03219956033736       -1.07729310578702
C            3.27082767998437        0.14255415842301        1.40301761642710
C            3.87888407555035       -1.11809179098950        1.41189627467607
C            4.37824768331219       -1.65595808468886        2.57068665319044
C            4.29814221022690       -0.96331193459706        3.78358698158735
C            4.83739564285125       -1.56354214606994        4.98466144170377
C            4.87805258875769       -0.99812323884101        6.20376355874790
C            5.43577747662936       -1.67413990647446        7.34015719972466
N            5.94099847425979       -2.90906545724202        7.31264812401073
C            6.36012944122506       -3.16301146496677        8.57116792574243
C            7.00366528699980       -4.34185905650551        9.09945576258220
C            7.26459983100821       -5.44165575646229        8.28009207942067
C            7.87751636944333       -6.55795076109257        8.78527942162690
C            8.24320032599891       -6.59892217435501       10.12258518085475
C            7.99501052889233       -5.52805779078428       10.94549691479518
C            7.36966882521675       -4.36873496245434       10.46598345591188
C            7.09641383761306       -3.21051495855674       11.32728266372561
C            7.43610356389406       -3.19154526862045       12.68701766055815
C            7.17613682025978       -2.09652818431922       13.47334330582791
C            6.56514995168626       -0.97322597522895       12.93519943600867
C            6.21647240878577       -0.95444285426486       11.61065827233820
C            6.47047951222635       -2.05865698166475       10.79220649751997
C            6.10781444575731       -2.05737250586696        9.40092329350398
N            5.51593392376641       -1.11261996727446        8.61015638225281
C            3.68893061944147        0.29636648493127        3.77695088934099
C            3.18847119391480        0.83376963166001        2.61762699801349
H            1.59734237743401        2.16162106317879       -0.76893468072679
H            2.70956025246617        2.78305252973169        0.45296831253152
H            1.22662959003232        1.93897699334581        0.93712466719518
H            2.62044061507917        0.67390370403746       -1.89553015454987
H            2.35637829334046       -0.88527262808042       -1.11102619487424
H            3.99133941613254       -0.20763071085743       -1.23195502961162
H            3.94858798718485       -1.67604193823580        0.49530497748688
H            4.84267328130083       -2.62718274699853        2.55558924470174
H            5.24740090532864       -2.55278778506611        4.88830630458478
H            4.49251776856623       -0.00837012916592        6.35585694786447
H            6.97606704130683       -5.39631302690151        7.24447094014062
H            8.07662543850241       -7.40236709014201        8.14580803880365
H            8.72713764997050       -7.47783333028002       10.51651752689918
H            8.29044472259100       -5.58728483569671       11.97692874435511
H            7.90985128083367       -4.04791296915977       13.13070215778156
H            7.44803563585057       -2.10687920947634       14.51633975082722
H            6.36554281207676       -0.11775786373301       13.55967681278440
H            5.74165329439925       -0.08723652731849       11.18677166890237
H            5.21956943039520       -0.17597755083276        8.88225014008098
H            3.60792454988237        0.85161715064404        4.69421503108868
H            2.73031765128539        1.80641794342458        2.63848556205001
