48
 energy: -9.999809038335 gnorm: 0.000727536528 xtb: 6.5.0 (97a52f5)
C            1.79528162977623       -1.56133160204950       -0.89976179684325
N            2.67827332474566       -0.47058179904250       -0.48601901331043
C            3.08331842245776       -0.44686817090150        0.91993250789850
C            3.13124949111302        0.49715670103567       -1.39918880775546
C            3.87924894733054        1.60030675952315       -0.97241076723486
C            4.32262375724953        2.54298994186756       -1.86460580656263
C            4.04819351484786        2.43166250040376       -3.23150458603953
C            4.54093084517524        3.44137207583359       -4.14363078747632
C            4.43995621792622        3.41515000604342       -5.48259593796760
C            4.96891610563218        4.46848414940267       -6.30849914721878
N            5.55073249828902        5.56166833295344       -5.81845766909088
C            5.90406126956148        6.28682615762238       -6.89310697732373
C            6.55207834341293        7.57447692379203       -6.95675910281634
C            6.91047895055224        8.25195758913309       -5.79070920116046
C            7.52120024836302        9.47645364128678       -5.85528140289883
C            7.78780919300610       10.05016125708616       -7.08943972808270
C            7.44373148181769        9.39959838555492       -8.24837761359419
C            6.81699561683156        8.14623635963107       -8.22226303270443
C            6.43638356748153        7.43141022399390       -9.44660939889006
C            6.68387688790365        7.94800616714543      -10.72564887917965
C            6.31793695234448        7.26026194142713      -11.85605607617956
C            5.68885915083326        6.02772706244466      -11.75739836659594
C            5.43013285383333        5.49097202381229      -10.52410346170679
C            5.79491656552995        6.17428697404302       -9.36366878186339
C            5.52634269909631        5.60823488991805       -8.06836087651294
O            4.92679439951385        4.44537239355584       -7.68835615575683
C            3.29823260421557        1.33113939918995       -3.65932687136122
C            2.85092916899386        0.39035450980346       -2.76639199979688
H            1.43215352088039       -2.11908674579661       -0.03908437888627
H            2.33043593858939       -2.24722951256217       -1.55360290875541
H            0.93200380364310       -1.16295564836036       -1.42934279561727
H            2.75650106636966       -1.34655188955446        1.43712039496976
H            2.64566497964680        0.41484233823891        1.42028290810369
H            4.16766539901276       -0.39068005852757        0.99536878736664
H            4.10241003873331        1.71317811329569        0.07341895605024
H            4.89604757222043        3.38464265240586       -1.51544088886624
H            5.04288693716742        4.28520181719636       -3.70511834430238
H            3.96849465175057        2.59020307343056       -5.98083773688667
H            6.69746092697883        7.79561687648618       -4.83992454572324
H            7.79352048276031        9.99360719510060       -4.94981337634118
H            8.26872465861116       11.01358919341150       -7.13676514451146
H            7.66125457685818        9.86774372925455       -9.19076305169032
H            7.17002419913357        8.90038397376411      -10.83180186302105
H            6.52019826111535        7.67916919130909      -12.82829446459179
H            5.40565587349586        5.49406766810459      -12.64986905697770
H            4.94339702369999        4.53531972221845      -10.43166943188525
H            3.06312994857198        1.22304005978581       -4.70302781307001
H            2.28158543295709       -0.44959654370858       -3.12227550731103
