48
 energy: -8.100845498189 gnorm: 0.000793505932 xtb: 6.5.0 (97a52f5)
C            1.04759421519132       -0.19059828788648        0.11174668027700
N            2.24738393074736        0.60030833211257        0.39015304639915
C            2.67290263985721        1.54270120495186       -0.64567980807638
C            2.96264250591511        0.45488558401424        1.59075748241315
C            4.06166500284639        1.27067823102832        1.88006053404242
C            4.76253045590280        1.12845732485354        3.04919114290986
C            4.40402690276888        0.16262672956187        3.99315243160006
C            5.16954711102079        0.04215438879430        5.21321287349848
C            4.92381258268353       -0.79561316996236        6.23422158217637
C            5.73856317148711       -0.80732247624036        7.36859699023617
N            6.83278052860761       -0.15161672185246        7.49869528759639
C            7.32392292198045       -0.28892032337111        8.69913997767889
C            8.47720222582931        0.30055157227228        9.16484358760845
C            8.69248791439982        0.93768520780108       10.31605453389231
C            7.83314658939783        1.44522896679854       11.20198947170634
Br           6.02322035979247        1.45949826609931       10.98342962886294
C            5.04984056817466        2.16617922775144        9.69261430515439
C            5.53688313497913        2.72324063990535        8.59224007294962
N            4.85032293745014        3.31285399762580        7.58704985837399
C            5.22391437589849        3.60682518001208        6.36655120702826
C            6.32950724059737        3.36944627688733        5.68285618894869
C            7.42731608575588        2.72948752780035        6.06673822699466
C            8.51300096836207        2.45883914311798        5.37397852938078
C            8.83328149075661        2.66083444647841        4.09470033538666
C            8.06868916442663        3.03405124907803        3.03708616773191
C            6.79888725839252        3.07761571873735        2.93899765615208
C            3.30590160935642       -0.65454834806255        3.70741709140782
C            2.60380931086161       -0.51185479670276        2.53726784388862
H            0.56179129271621        0.14200708463539       -0.80318874616994
H            0.33425718922335       -0.08769613596755        0.92718882333597
H            1.31095305096028       -1.24044457073072       -0.00160523733065
H            2.07501895049688        1.43101891536377       -1.54774570177239
H            3.71388936310993        1.36434331252106       -0.90833925898390
H            2.56549518362552        2.56459386671809       -0.28705073411506
H            4.35635259121909        2.02779252972150        1.17620889879701
H            5.60270161697590        1.77435439347726        3.24720364126294
H            6.00890238715039        0.70623410408443        5.31816856001458
H            4.08290756427010       -1.46326324780035        6.20650995131869
H           14.66370576074435       -0.69597664721186        9.65699761077001
H            8.21632228127699        1.80380667920583       12.13991508070212
H           -0.11148080604659        6.57779529891801       14.44481999329453
H           12.55248600137861        2.03790216484564        7.37065091647439
H           13.11886337276664        1.33303968869692        3.01368585139716
H           10.13963542415673        4.54708527997530       -0.77837554476688
H            6.44117121123300        3.58690746259344        1.14902000988637
H            4.74055753405708        4.32516775614930        3.45384225771319
H            3.00864682406127       -1.40876486542887        4.41387798210547
H            1.76807000565649       -1.15841816146672        2.33799272096246
