46
 energy: -8.897775090281 gnorm: 0.000726153507 xtb: 6.5.0 (97a52f5)
C            1.36268002737363        0.88840939223307       -0.10402487327667
N            2.57456656761201        0.07580416371287       -0.00065270061391
C            3.09022220718839       -0.16221303865983        1.34753637056554
C            3.21014911003501       -0.45170067133804       -1.13840442795400
C            4.25329539394745       -1.37704763528746       -1.02089939203012
C            4.87381262251102       -1.88910392570413       -2.13091640870808
C            4.49070571434995       -1.49991312374973       -3.41924538180391
C            5.17568952363812       -2.05371396707296       -4.56290021398112
C            5.00343673607279       -1.67271562274129       -5.84413701338598
C            5.68297513250641       -2.20189520016786       -6.99313395737695
N            5.39681388669579       -1.64239433201411       -8.14701839805565
C            6.03430270499749       -2.11842077948467       -9.25010523834943
C            5.76961265123095       -1.54523286569911      -10.50292683974419
C            6.38917631689469       -1.98931134656884      -11.63554422296235
C            7.31820538896890       -3.04346569981266      -11.58654103456562
N            7.96200937854799       -3.49844357671214      -12.74770082481031
C            7.80476186390063       -2.81315320434006      -14.03048297879842
C            8.83856814718849       -4.66948500737262      -12.73167705363822
C            7.58197772561565       -3.61756521265835      -10.34931054580288
C            6.96361644782410       -3.17769535691799       -9.18309258061071
O            7.27233503588398       -3.78289473367042       -7.98707871219378
C            6.64293856164705       -3.30682329835281       -6.86349215263686
O            6.86946625905592       -3.78959563407932       -5.76104815198982
C            3.44528855754748       -0.57682167390478       -3.53807042217248
C            2.82178389636156       -0.06860220564562       -2.42723102336908
H            0.89132260938047        1.00834221546086        0.86907402173220
H            0.64520968995055        0.40775234571486       -0.76580222009942
H            1.60697114731921        1.87372388967662       -0.49520685164701
H            2.61918882859730        0.50443290568018        2.06700642692550
H            4.16261335547584        0.02053594681090        1.37541784147821
H            2.89368273136670       -1.18997764838743        1.64595754046053
H            4.56344333884930       -1.69936642702460       -0.04301937610031
H            5.67394875286137       -2.60051766700543       -2.01832189478565
H            5.89272002583738       -2.82672398711241       -4.36122019553960
H            4.30746837394788       -0.88186170233966       -6.05294970610958
H            5.05965313742673       -0.73846425177903      -10.55260887575837
H            6.15837417588048       -1.53411075804675      -12.58175199725460
H            7.99653312992734       -1.74841901766667      -13.91147961527701
H            6.79369840331503       -2.95561972946541      -14.40734225209383
H            8.50567504157845       -3.19886016531190      -14.76812997380158
H            8.33447787180949       -5.50713238548764      -12.25377346898366
H            9.75270436985134       -4.44271420990779      -12.18671528777937
H            9.10495605472122       -4.97182282651028      -13.74210351254146
H            8.29037140387121       -4.41903450657525      -10.26775471808829
H            3.11790190728167       -0.26609902297348       -4.51378391803425
H            2.02848579315628        0.64756155825829       -2.54551378843717
