36
 energy: -7.213867186558 gnorm: 0.000806656668 xtb: 6.5.0 (97a52f5)
C            1.44698763025784        0.35557875059398       -0.38694114412520
N            2.72872856111126       -0.20658731624759        0.03823658085694
C            3.34979908773751        0.40201435498531        1.21483494769112
C            3.32376369560216       -1.28544944798084       -0.63921222728870
C            4.46168247192275       -1.92110793840388       -0.12976737052805
C            5.04320132564252       -2.97077126519020       -0.79367742533200
C            4.52032474794977       -3.44165890854422       -2.00258456526703
C            5.15947631128792       -4.55324743270242       -2.67341817354147
C            4.78879630144032       -5.08141184258611       -3.85046941516303
C            5.48875494858473       -6.19508944120032       -4.43281057544611
N            5.16986933684659       -6.72210727449535       -5.60726673184008
C            6.05123330189494       -7.73288844062982       -5.79451780969152
C            6.18910724599517       -8.63867865131823       -6.85980040452690
C            7.17695933875533       -9.58255283846706       -6.79980303981553
C            8.04475407802099       -9.65676509938445       -5.69888829077454
C            7.93350889133939       -8.78883050952399       -4.64758557876894
C            6.93173294757520       -7.80849276507010       -4.67876921458808
O            6.55973111935501       -6.81420155334411       -3.81416940341895
C            3.38135569053415       -2.80851366146657       -2.51182362161981
C            2.79893351967816       -1.75922695551970       -1.84698023269002
H            1.04763267261813        1.02841462328453        0.36883180719953
H            0.72217375331745       -0.44045958619446       -0.54271324590981
H            1.57256097670260        0.91123927608337       -1.31358791126611
H            2.89632653325447        1.36521830619603        1.43953250686426
H            4.41066993862670        0.56740751527378        1.03756016151585
H            3.22833576255520       -0.24950168634871        2.07810512640793
H            4.87770481536913       -1.58835656624088        0.80423208912748
H            5.91791141483643       -3.44653257119248       -0.38415552375319
H            6.00907147986076       -4.99477351133715       -2.18277168401152
H            3.95590370881897       -4.68033681686594       -4.39408218858365
H            5.52042829199890       -8.57612665834115       -7.69932476463022
H            7.29275662027655      -10.28245442589696       -7.61087902330068
H            8.81220687952781      -10.41303544667838       -5.68322344002242
H            8.59346725149543       -8.84085361556958       -3.80044524574963
H            2.95286099207734       -3.14969172579388       -3.43703107772079
H            1.92910835712928       -1.28418887387997       -2.26431389028505
