38
 energy: -7.678081815115 gnorm: 0.000605773062 xtb: 6.5.0 (97a52f5)
C            1.49813525288883       -0.70859149488899       -0.17311057969454
N            2.74950728493580        0.00399115796116        0.08562624913137
C            3.44799400631562        0.54289544989031       -1.08206417226867
C            3.25123027675957        0.16292564867508        1.38715716356158
C            4.38176577117611        0.94997173472385        1.63846318633873
C            4.87721803759391        1.09337368128593        2.90921620615296
C            4.27042173589138        0.45810762347944        3.99810020073607
C            4.82383999522185        0.62503850782160        5.32409737779973
C            4.38091269548912        0.02122315299912        6.44008126133827
C            4.98095626622991        0.22388201992083        7.73910121610751
N            6.01370233512809        1.10512626779055        7.80648962224167
C            6.53919932479771        1.26707657641904        8.97941724839455
C            6.09729243928047        0.59081937302042       10.12283142283468
C            6.67083627735637        0.75904451527442       11.40009568791682
C            6.18737479344453        0.06094384903318       12.46743636771340
C            5.11907152725704       -0.82574811948200       12.30284299849651
C            4.54932736592409       -1.00185017047139       11.07458243027907
C            5.02367164256803       -0.29736422685848        9.94940773214761
N            4.46026909384835       -0.47497061675898        8.73474511925190
C            3.13618787673933       -0.32294142050237        3.74966613736495
C            2.64016340231722       -0.46547469779412        2.47904606172040
H            1.18550494131797       -0.58495767530552       -1.20795926211959
H            0.70686867540122       -0.31981362414015        0.46498932776860
H            1.62599113212614       -1.77130144849698        0.02386101618693
H            3.04561940611969        0.12669521455441       -2.00341100050541
H            4.50573428559973        0.29121611713926       -1.03718061747161
H            3.33937663176445        1.62526433121699       -1.11459109727834
H            4.86315578963649        1.45724819652369        0.82168475289548
H            5.74911360936426        1.70124848565942        3.08046422953382
H            5.66727857802562        1.28425431080458        5.42003313118378
H            3.55097527200543       -0.65713537190203        6.39185749361167
H            7.36022902314120        1.95987337458853        9.06788181441408
H            7.49269211567380        1.44350947138438       11.51985569601510
H            6.62811438710476        0.19138735913859       13.44210931867849
H            4.74544391356322       -1.37343613655856       13.15238554460752
H            3.72837843564506       -1.68443536007135       10.94316207018579
H            2.64176226299276       -0.81743103121042        4.56633095303864
H            1.77212413935249       -1.07841502487124        2.31454769168610
