38
 energy: -7.351769755785 gnorm: 0.000963173560 xtb: 6.5.0 (97a52f5)
C            1.01439151935763        0.52395367329548        1.54659897418615
N            2.33062324269558        0.56471560597661        0.90327459016535
C            2.42438060491747       -0.07325828867998       -0.41306626620275
C            3.41584070718942        1.16572356422471        1.50134152607107
C            4.67770649327945        1.20066396711956        0.86511361191855
C            5.75396800818922        1.79616664794888        1.45914932320262
C            5.64315980265532        2.39583334066579        2.72719279707428
C            6.78535166447735        3.01526113924609        3.34186343535528
C            6.78637506567645        3.59814299809476        4.51396459310256
C            4.48201636984314        4.32920879961158        6.90611073924411
N            4.11870388097017        5.04301717817915        7.98206115053486
C            5.48690726660182        5.10186256141088        7.69496370550799
N            6.35439162746511        4.31131400517862        8.60955283952125
C            6.75125474764910        4.99870550537244        9.93981857101871
C            7.58459617914612        6.23440757954949        9.80810405865139
C            6.97383396355242        7.15456982002756       10.55475350397958
C            5.77650283296687        6.59711227965147       11.19413093558344
C            5.61583540389123        5.31643513934483       10.86061269990374
C            7.10667540414786        3.65459920569071        9.42780055583045
C            4.38922143797492        2.36691402662160        3.36453614469315
C            3.31090823455961        1.77204332202824        2.77398170167525
H            0.28470309035838        0.00886942857175        0.92483704423477
H            0.65344386091499        1.53556272886472        1.72405379193447
H            1.07883451071510       -0.00194400821863        2.49759798895327
H            1.46816764563736       -0.49249742062337       -0.71999387641216
H            3.15430311720036       -0.88053842529201       -0.38618760275810
H            2.72864967629346        0.65625912652097       -1.16167516128311
H            4.78848803166194        0.74891421481761       -0.10431990821021
H            6.70702471338980        1.81173682540213        0.95835354467374
H            7.71005765934288        2.99537189446133        2.78210633884144
H            6.18501272919187        3.83611434629657        5.31989627694230
H            5.86654985056256        6.04519166717712        7.28589258627706
H            8.48249528151809        6.34616405460915        9.22603645474602
H            7.31194863619163        8.17057622249383       10.67867508555215
H            5.11995582303342        7.15150288483854       11.84491732991546
H            4.82700249030448        4.65048295350699       11.16352950658441
H            4.28782869564999        2.82575767857865        4.33305280848635
H            2.36406973129437        1.76307375755585        3.28345860015552
