38
 energy: -5.184037697064 gnorm: 0.000882627513 xtb: 6.5.0 (97a52f5)
C            1.29073675791424       -1.05390391166221       -0.78378041646548
N            2.53467658287088       -0.56080313520499       -0.18888948116755
C            3.24975123169530        0.40336215724939       -0.97401403386598
C            3.06687591083871       -1.06367179701235        0.98062177592554
C            4.28976305628454       -0.58301170347717        1.41962536447812
C            5.00372813610642       -0.89726962130409        2.47135467810724
C            4.73566203425152       -1.79445062021563        3.42290526353166
C            5.53350642316231       -2.08695604716134        4.52534215074766
C            5.23749908000339       -2.97638564799882        5.44255908081549
N            8.14998299419567       -6.49938928926160        3.95546324274998
C            8.47287770483856       -7.25177795801716        2.92697602997438
C            8.13868321740972       -8.00891660627127        4.04466786255732
C            9.14742072178086       -8.57029553603060        4.84492717451596
C           10.29398185159881       -8.72062838012456        4.17840732341711
C           10.38249198824053       -9.92999262800267        3.48604673066239
C           10.95571936569186       -9.94320134424451        2.33839379918105
C           11.46286567481457       -8.77481140429554        1.82558141179614
O            8.08024813555119       -6.04693637901896        0.38836039747349
C            5.86862070516940       -4.21417880096653       -1.72246314669186
O           -0.23246763978074       -1.55326424743550       -4.37940287989781
C            2.40350395627136       -2.02476274377998        1.69348944329689
C            1.48259141838769       -2.30003768549576       -1.25065392277095
H            0.98195340043867       -0.41547918723184       -1.61049359785751
H            0.48981880029504       -1.06120489895890       -0.04614753859699
H           -2.09274683679098       -3.84133678102983       -3.70950117110395
H            2.66410880438792        1.28423789345418       -1.13404705756269
H            3.55328736085878       -0.01276880512651       -1.91167062080719
H            6.76840891712527        3.27784706315024       -0.65523030251891
H            8.89174373999589        1.43151524501840        2.61233378573454
H            6.46032879147773       -1.53662703824100        4.62059844671159
H            5.43232874861602       -3.50153865733719        6.30892218337071
H            7.17780925302804       -8.54680514082515        3.99730346302526
H            8.96159613889383       -8.65259978568812        6.41580370124383
H           12.87589661772893      -14.96219519004409        0.64195087000394
H           12.02810429279967       -8.74412234390757        0.94053339555166
H            8.33320707422395       -5.11215803510948        0.32335291841924
H            4.08562298880055       -6.14871712465659        2.11837774273721
H            1.47574328267203       -2.43097421445851        1.42300487893464
