45
 energy: -9.050501726061 gnorm: 0.000488598220 xtb: 6.5.0 (97a52f5)
C            1.21781770239374       -0.34217750146194       -0.70044147423685
N            2.28570622163868        0.19887802850225        0.14134379848039
C            2.38203449850639        1.65669870085233        0.22635654979689
C            3.16315158916119       -0.63812040463546        0.84276494858168
C            4.13713955950293       -0.11342345277954        1.70098326860513
C            4.99839732432723       -0.93492656968563        2.38063135435306
C            4.94464722319975       -2.32604141234899        2.23677886995251
C            5.88099886509828       -3.14992042760422        2.98280181193374
C            6.26881519557544       -4.41448033125640        2.72848921731012
C            5.89988801405098       -5.31504259363791        1.58462532853182
C            6.89293812063510       -6.49336551440071        1.62504604658174
C            7.59983254768242       -6.39723264585454        2.94557338223496
C            8.34540007095660       -7.32440505999388        3.57107623688095
C            8.70096779587106       -8.65004729067299        3.07224965247523
C            8.84846450139888       -9.70696573518279        3.97235999356400
C            9.19241804507833      -10.96535965990406        3.53842126718241
C            9.41188080114063      -11.21604973793118        2.18860046271497
C            9.76407147962407      -12.50011351519882        1.74587804747290
N           10.05778340529832      -13.56252723002437        1.38008866194617
C            9.28150944351601      -10.16460392862833        1.28819193991899
C            8.93580283347928       -8.90585378069494        1.72068068409356
C            7.25907716067717       -5.10708981194284        3.56272578523580
O            7.72396737326802       -4.67984181160562        4.60296820041629
C            3.96053827101098       -2.85044860420681        1.39260732146658
C            3.09590214682774       -2.03089602526912        0.71406820086881
H            0.61180516476016        0.45405444797754       -1.12683768208225
H            0.56701795618606       -0.98299183875198       -0.10895662120587
H            1.64419442287437       -0.92044504557579       -1.51757042246965
H            1.68797248294452        2.13678574273378       -0.45994213933554
H            3.38815404247834        1.97930202121607       -0.03372852917732
H            2.14899045387002        1.98700587506414        1.23657080350599
H            4.20556615690995        0.95152647997803        1.83201814771668
H            5.74061909250790       -0.50901633373264        3.03388752584267
H            6.35137956722333       -2.67647349893497        3.82749995616644
H            5.94408955467751       -4.77302762152847        0.63288318016293
H            4.87354003364886       -5.67557324024267        1.71473181965937
H            7.61925092788827       -6.41250346049584        0.80904888159351
H            6.39119652509850       -7.46260649677587        1.52296940184081
H            8.68188411099111       -7.08037563916576        4.56402912626804
H            8.67876008334373       -9.52690216741541        5.02001994739151
H            9.29614486020205      -11.77363510722692        4.24207276978986
H            9.46213420393839      -10.34924765359646        0.24297522240633
H            8.87917480038898       -8.09913241534610        1.01299214752521
H            3.85601603982686       -3.91480768048333        1.29792481407137
H            2.34958933032634       -2.46418005212577        0.07269209396162
