52
 energy: -9.761992988325 gnorm: 0.000539255541 xtb: 6.5.0 (97a52f5)
C            1.32295688364232       -0.04447014850118       -0.82157650158056
N            2.33620354904626        0.35160971790384        0.15761644755485
C            2.45990667362932        1.78285010911315        0.43548792735191
C            3.15998337723616       -0.59361637039062        0.78728249425796
C            4.07425511133086       -0.21436187839769        1.77754377557462
C            4.88001407973676       -1.13966948060241        2.38959978002280
C            4.82769472183398       -2.49457968990353        2.04143999179660
C            5.70479315238732       -3.43476075750279        2.71954495519828
C            6.11917167632445       -4.64294278408425        2.28883886843710
C            5.85066995152173       -5.32519261625153        0.97860311818670
C            6.86273941018350       -6.48205461281152        0.88293437844484
C            7.46282818374585       -6.62661344368726        2.25149082094460
C            8.19128755813074       -7.64108781392238        2.75864864437498
C            8.64595104193728       -8.84409374159628        2.08104074811927
C            8.96801868090317       -9.97557753765234        2.83986381660621
C            9.40640050031864      -11.13115830354780        2.24604277736578
C            9.56017023922631      -11.21753694636949        0.85702659062659
N           10.01760607553434      -12.39570423377337        0.24769412877955
C           10.24551143616495      -13.61955587619231        1.01674911364351
C           10.30142725348130      -12.45785568964467       -1.18682746788196
C            9.25212466699276      -10.08164647076691        0.09881756070603
C            8.81040127831018       -8.92790453742643        0.69420184253051
C            7.04553493361870       -5.47731530451657        3.06380304006805
O            7.41268273276403       -5.24966583997047        4.20427193673946
C            3.90258846119127       -2.87498995982244        1.06325822007002
C            3.09350941253281       -1.95142212810292        0.45220903200462
H            0.72043804569432        0.80736088045177       -1.13026174288725
H            0.65594384692002       -0.78835195524237       -0.38987194468651
H            1.80113406831753       -0.46384435634505       -1.70484091402382
H            1.82686146162739        2.36829993540831       -0.22810463085831
H            3.48926005857933        2.10466851754146        0.28887704959548
H            2.16453889754353        1.98992755953525        1.46233517817560
H            4.13907746861028        0.81949295977560        2.06591533805372
H            5.57769285465893       -0.82575255528700        3.14717625724950
H            6.10444529198597       -3.10804189619535        3.66414866823095
H            5.94969082938318       -4.62091489995508        0.14412236692356
H            4.82504420568222       -5.71122423271310        0.96627448935190
H            7.64893825403281       -6.24315470753665        0.15797270753253
H            6.39019883461649       -7.41837139465303        0.56340071488776
H            8.43714509785586       -7.56880318810446        3.80416106392315
H            8.85831782757935       -9.93065994241794        3.90998294668957
H            9.64731691549247      -11.98311452694299        2.85618724887780
H           11.09222124314525      -13.48700786995685        1.68753145051853
H           10.45623190013766      -14.46176442238204        0.36081847067250
H            9.36096153699447      -13.86322563879956        1.60204189109047
H           10.96914660958374      -11.64723425249074       -1.47248275334778
H            9.37627436355357      -12.37422757736070       -1.75392051006465
H           10.78301736092886      -13.39707708943572       -1.45097902474092
H            9.36425633699782      -10.11682856285298       -0.97009023992509
H            8.62091431147675       -8.06380956911505        0.08553613206343
H            3.79944170785114       -3.91299560248352        0.80793885977232
H            2.39428962902180       -2.27348927403242       -0.29858511300712
