33
 energy: -6.017052984705 gnorm: 0.000545602178 xtb: 6.5.0 (97a52f5)
C            1.17999975032929       -0.61098729175824        0.35866067221651
N            2.45582764117302       -0.07268455336550       -0.11520470470216
C            2.84875232252765       -0.41649719094587       -1.48232317734983
C            3.26086554551448        0.73715488040510        0.69967645215641
C            4.42791556564576        1.33182268549841        0.20555489484212
C            5.21903700163738        2.11234058536118        1.00832779731438
C            4.89639961433695        2.33721618235684        2.35207883747884
C            5.77276675741611        3.16974304381800        3.15736882065851
C            5.87612074675498        3.22506537645587        4.50067808591175
C            5.16675666373092        2.40085128639298        5.54134363658160
C            5.91496590488422        2.60988979603915        6.87220110870304
C            6.79955234766287        3.85025937220480        6.65466038963131
C            6.85287211954015        4.09354649720745        5.16480981367797
O            7.59975804650682        4.86745767791798        4.60830911232187
C            3.71966394827062        1.75804207013021        2.83947413458226
C            2.92553267065535        0.97938562529264        2.03722305299911
H            0.64047264332490       -1.10651128168070       -0.44570824139138
H            0.55277841747683        0.19349819600107        0.73795801713212
H            1.35233025544242       -1.33443972232581        1.15327041417749
H            2.17873457734469       -1.16090825848937       -1.90738179063682
H            3.85604393773077       -0.82855576684258       -1.48924188676035
H            2.82127124766351        0.47034329646515       -2.11256801894260
H            4.70306730148582        1.17962449659326       -0.82266977148541
H            6.11307062942235        2.55852628527813        0.60744255158441
H            6.45443305180103        3.79745440913441        2.60942688668306
H            5.14256345438898        1.34475479195462        5.24875899808717
H            4.12929333644579        2.74142718318169        5.63231649133124
H            6.53512844059035        1.73491785438023        7.10295494880928
H            5.22782249253561        2.73491330659864        7.71872403556811
H            7.81080306162221        3.72115450170561        7.05518354103159
H            6.37064158183612        4.73080339926030        7.14481585277029
H            3.41278559701516        1.95024371114376        3.85020245791695
H            2.02897332728781        0.54495755462996        2.44185658710167
