37
 energy: -7.396677578723 gnorm: 0.000852403083 xtb: 6.5.0 (97a52f5)
C            0.92483357670961       -0.15951917633825       -0.18943027065232
N            2.35726678401688       -0.19187025681774        0.10545442796064
C            3.20150842969599       -0.98315592113528       -0.78933832043811
C            2.89667038384169        0.49655829670982        1.20730253536838
C            4.27251109989749        0.48493052557676        1.46427247480820
C            4.79918286228545        1.15230662168605        2.53908325001807
C            3.97681599927514        1.85479696074016        3.43048085231632
C            4.56066648088546        2.58106197191973        4.53836971710827
C            4.00228904823824        2.83317345478128        5.76679201570565
O            4.53834373739912        3.76603308703938        6.65764957868628
C            3.73342086878061        3.83084218970454        7.77322529715790
O            3.86231962578128        4.55042117800436        8.74676106010503
C            2.65034322030862        2.84759307318124        7.61034348505300
C            1.63587877268729        2.48151400201191        8.47085308258871
C            0.77710278259968        1.44227560494237        8.10726398852270
N           -0.25293350155755        1.05527068245342        8.94632320915994
C            0.98723097068374        0.78523820647516        6.87756164606472
C            1.99934069338592        1.15512948373063        6.02851520609337
C            2.83076106459773        2.22014491431923        6.38177041077464
C            2.60353925347820        1.89248910177306        3.15326463527305
C            2.07800139805545        1.22564357171825        2.07755190664757
H            0.69857588535998       -0.71323742422270       -1.09768823645732
H            0.59622789077220        0.86838087336053       -0.32866754207822
H            0.36667646430804       -0.60683610804260        0.63048880203635
H            2.60570854185936       -1.49362078247672       -1.54279907637601
H            3.74336318219605       -1.73620673178221       -0.22086986868061
H            3.91369625810962       -0.33630514829432       -1.29765981986884
H            4.92763008041452       -0.05230214076956        0.80244177280218
H            5.86040500333264        1.13279840134741        2.71865605264980
H            5.53355094921883        3.01123826896182        4.37062740907231
H            1.51886383469866        2.98512503674530        9.41182612532004
H           -0.31144073576714        1.37728248569983        9.89621854703696
H           -0.76534338272186        0.20325872856791        8.80081821950455
H            0.33383740612705       -0.02677676767014        6.61273717289160
H            2.17304897724389        0.61330782658547        5.11717994533777
H            1.96286617836674        2.48475147990764        3.78341377375711
H            1.01923991544104        1.26627442961263        1.89507653472925
