45
 energy: -8.714672042311 gnorm: 0.000336164204 xtb: 6.5.0 (97a52f5)
C            1.22599251618193        0.81109853643186       -2.16314133920696
N            2.49849978886281        0.52239549175665       -1.50236812000123
C            3.24947199738753        1.67053740647375       -0.99453160689992
C            2.95053166415630       -0.79796785990772       -1.31210007764170
C            2.13262547481864       -1.89308931423785       -1.61463407844841
C            2.56292150888584       -3.17872147413625       -1.40231239592447
C            3.83410503533910       -3.43361533030637       -0.87917767469827
C            4.25536147328844       -4.73119053647501       -0.63466541630211
C            4.61131662329959       -5.88569342591721       -0.37501886367583
C            4.96388357360665       -7.18037449737127       -0.06101915131306
C            6.20060811322150       -7.71048826175244       -0.45203369092555
C            7.14641044556043       -6.93328325891050       -1.32260560549127
C            8.63120865415792       -7.26269079233200       -1.07206222581069
C            8.88272999939253       -8.71883976113689       -0.80267881630817
C           10.12651249082552       -9.27583214111342       -1.03209976808116
C           10.37972112498727      -10.60251405889712       -0.73185083246325
C            9.38457256179881      -11.39185294220447       -0.18619885576938
C            8.14110312215065      -10.85927091618652        0.05058491401968
C            7.86311403695104       -9.52510750635516       -0.25945312255178
C            6.54652878822337       -8.98795323580503       -0.00258843022274
O            5.66197633391795       -9.74973101667439        0.70409928452464
B            4.24529383504901       -9.39921114619415        0.55983081617339
F            3.83086423728019       -9.78965136805932       -0.69177949425820
F            3.50306406321898      -10.02381391144520        1.52838314392383
O            4.08853657450720       -7.94350438646907        0.66290911244880
C            4.65831497903634       -2.34262710484319       -0.58759710075550
C            4.22729167211216       -1.05721758272192       -0.79978888497394
H            1.14034708881443        1.87051552878217       -2.39438967037591
H            0.39887025688615        0.52964111364669       -1.51478142143326
H            1.15626376252661        0.25768006815779       -3.09716901621334
H            2.64153317807909        2.57228017693923       -1.01572596215142
H            4.13522726931961        1.83458801615070       -1.60454725632200
H            3.54968459269586        1.49387910668847        0.03618508480809
H            1.14473375316544       -1.72252451855266       -2.00305261380541
H            1.91938817210784       -4.01141913522823       -1.62936653844778
H            6.97020454626197       -5.86046359566657       -1.18098616718704
H            6.89506906926943       -7.13726084040883       -2.36984753779131
H            8.99840856973942       -6.68432793773208       -0.21644700521806
H            9.23992047884736       -6.94601471807423       -1.92774385150659
H           10.90922845782700       -8.65972196136753       -1.44016334680968
H           11.35623044961317      -11.01897736909235       -0.91613463287913
H            9.58500764106351      -12.42297773195264        0.05460893642525
H            7.35774929312773      -11.46171710968990        0.47728622121172
H            5.64015275109574       -2.52672892469433       -0.18625989857919
H            4.88242998136483       -0.23469977306432       -0.57561704311861
