78
 energy: -17.187442473773 gnorm: 0.000954512123 xtb: 6.5.0 (97a52f5)
C           -4.19170080741244       -0.88496131912718       -0.05203473354923
C           -4.26194133475351        0.45435070602155       -0.04874253923626
C           -2.90982986773904        0.93738340909592       -0.00592942053937
C           -2.58889419698213        2.31426619621829       -0.00738064181558
C           -3.67353086676553        3.32233147796103       -0.02409413967828
C           -4.67767642608508        3.32600538747163        0.95224115002004
C           -5.67885421305182        4.26916396596774        0.93302533593198
C           -5.70585353202004        5.23341952321554       -0.05592432652145
C           -4.72451674378933        5.25192927461286       -1.02799933977154
C           -3.72094804399712        4.31153355768275       -1.01453047437063
C           -1.22661780526975        2.76382599649731        0.00356835110729
C           -0.81303650845037        4.11241242444750        0.02765838769992
N            0.52471618313274        4.15648960975898        0.04405380869978
C            1.02940774500997        2.85099991595455        0.04615007303977
C           -0.05778191610913        1.98842196373107        0.01892656397502
C            2.41972024854869        2.52540828253317        0.03505209356470
C            3.39961102610530        3.63345502808609        0.05867786406784
C            4.37269811290657        3.76614161538336       -0.93978422538744
C            5.26883859106198        4.80939365729764       -0.91784646641784
C            5.21948056990913        5.74614480417242        0.09645823690706
C            4.26748044364447        5.63648201968311        1.09151001589602
C            3.36779060318542        4.59631975194477        1.07474399910991
C            2.86714228578412        1.18279412831793       -0.00019744038816
C            4.25756634715283        0.82555018476922       -0.00715220709591
C            4.30979060717481       -0.51515431463786       -0.02653297761290
C            2.95184845647019       -0.98349935706025       -0.00798832140099
N            2.09923136374851        0.06246930853009        0.00171788259242
C            2.62297198590466       -2.36711206591069       -0.01803487977457
C            3.71487638029764       -3.37078276703406       -0.03922713481601
C            4.68383503945502       -3.40872609938405        0.97057895438994
C            5.69342956527531       -4.34290920383559        0.94638707691128
C            5.76339458217432       -5.26288653083075       -0.08173925997169
C            4.81732831197900       -5.24574948964551       -1.08818735417077
C            3.80539986352470       -4.31413252353543       -1.06957966637058
C            1.27906026441134       -2.82118990709225       -0.01138163023892
C            0.89111330053197       -4.18454858036815        0.00863352952481
C           -0.46948039876506       -4.24225397160786        0.01481484382854
C           -0.97157327646498       -2.91658513663572        0.01419443047927
N            0.11992906726914       -2.07299246378636       -0.00057425350590
C           -2.34864102557816       -2.57819359562739       -0.01393408039097
C           -3.35188926336918       -3.67129179389651       -0.03246192979184
C           -3.41344766661155       -4.61192610818410        1.00252230380354
C           -4.34591762834758       -5.62307093114165        0.98350137513002
C           -5.23875331731131       -5.72416364952076       -0.06577010510659
C           -5.19511480972116       -4.80891976239019       -1.09955460194267
C           -4.26535160620163       -3.79524546816126       -1.08628764288401
C           -2.79652823897030       -1.22802964947102       -0.03035046414081
N           -2.04252789719706       -0.11022533348207       -0.00051045503171
H           -5.02190591311160       -1.57105411130813       -0.06461707007422
H           -5.15869153894246        1.04998732228872       -0.07993954124978
H           -4.64552515301454        2.58626854140876        1.73368670822094
H           -6.44297538238150        4.25747197019354        1.69298922544966
H           -6.49191114981593        5.97069446752266       -0.06931833196873
H           -4.74707707414136        6.00319861188675       -1.80046320353122
H           -2.96521854939915        4.31554120454185       -1.78119613392920
H           -1.46062873990176        4.97314872436346        0.03202806838429
H            1.11649608115909        4.98684109842702        0.03763168686948
H           -0.01222759339160        0.91832702328506        0.00499942833339
H            4.39716360251128        3.04748791194583       -1.74089133375634
H            6.00896990878943        4.89831332118541       -1.69623434955608
H            5.92317882183224        6.56230482222800        0.11147509795096
H            4.23087505378296        6.36651346061432        1.88357509321238
H            2.63325764795422        4.50211959999076        1.85603753942061
H            5.09614907260801        1.50123180320535        0.00759328714684
H            5.19904922884941       -1.12230659259483       -0.05265414668234
H            4.62004971969241       -2.70041552940437        1.77872743075397
H            6.43054053391416       -4.35836600068497        1.73256364205553
H            6.55540027421476       -5.99367083554782       -0.09862283832638
H            4.87320478934239       -5.96309552144976       -1.89060100892397
H            3.07452255621132       -4.29179028560654       -1.85967023096440
H            1.55961615687702       -5.02870577070060        0.02033617228647
H           -1.06429536502854       -5.13983367776601        0.00906098256785
H            0.07585148106013       -1.04912824549021       -0.01552699261650
H           -2.72531669286946       -4.52414940291128        1.82564891027559
H           -4.38135956850838       -6.33672630008224        1.79037960959022
H           -5.96863934073442       -6.51704701472083       -0.07803324542710
H           -5.89042782181027       -4.89024913904791       -1.91902443286289
H           -4.22158859944244       -3.08882362275479       -1.89741558740571
