91
 energy: -19.700831754188 gnorm: 0.000536002556 xtb: 6.5.0 (97a52f5)
C            1.44925059089392        0.57336291259353        0.25033956057359
N            2.79757187369886        0.28211953592708       -0.23847214365320
C            3.70252303231287       -0.39111638091517        0.69405412101693
C            3.19996735820270        0.62236488767505       -1.53925124747870
C            2.36544553102884        1.36115991483804       -2.38545814067241
C            2.75934801910771        1.68825140115059       -3.65904406611429
C            4.00304962367881        1.29446523185256       -4.14696394373170
C            4.40338876978406        1.61951859550742       -5.45146017020214
C            4.75245984444340        1.88876626886295       -6.59259010685764
C            5.14618088934083        2.18514976510031       -7.90440138339674
C            5.47679351211344        1.14669659071022       -8.76372560420243
C            5.86789207173417        1.36001048631212      -10.07666058053270
C            6.19348537943426        0.25919287062649      -10.88549691869587
C            6.48418793248326       -0.69691787247946      -11.58841649741436
C            6.82719883254361       -1.80375638340362      -12.38929247959566
C            7.12098780996967       -1.64161003938177      -13.73814666912378
C            7.45895155295810       -2.72540897655045      -14.51810210135196
C            7.51169822416794       -3.98922749862473      -13.96856672174118
C            7.88260443118249       -5.17863067936096      -14.84702912725557
F            6.90808702120619       -5.35633323320455      -15.75602990430762
F            9.04720180652256       -4.90931649956313      -15.46274997028932
F            8.00721992966106       -6.27573633625218      -14.07946739621571
C            7.21935239406212       -4.16297151057733      -12.63150208524552
C            6.88090967212372       -3.08247314878131      -11.84729514241895
C            5.93084811159859        2.68288402672434      -10.57125542305076
C            6.31456122060593        2.96607391905039      -11.91088070436169
C            6.36583875398563        4.23569502337984      -12.37636734034243
C            6.04180571699401        5.34356884655070      -11.54545635112398
C            6.08495106563741        6.67285495101612      -12.02377383373437
C            6.43508765631526        6.95690395474562      -13.35357780320154
C            6.71654437145723        7.18221173834486      -14.52097713680903
C            7.01706167947758        7.42977228558120      -15.87461456780490
C            7.03954079507137        8.72717775477457      -16.37271420863669
C            7.32289964542788        8.96487239020552      -17.69949028868818
C            7.58987170452864        7.91534657043266      -18.55342151169781
C            7.88988809703281        8.19564125335610      -20.02152725508150
F            6.78939962035304        8.72082797287515      -20.58782784421452
F            8.90883578511494        9.07024705820247      -20.09040920482650
F            8.22339876354786        7.04591181125831      -20.63413173386064
C            7.57037245210718        6.62316554473285      -18.07044645954123
C            7.28759821272079        6.38008399570553      -16.74458758000468
C            5.75991313938434        7.71217442737499      -11.16459732887440
C            5.38782932154027        7.50099331472963       -9.84490654231441
C            5.06324376131509        8.60445694147580       -9.03946464184689
C            4.76982721277010        9.56883053630869       -8.34900376104162
C            4.42374054231111       10.68876008315033       -7.56789381643266
C            3.43916014645116       10.59806021818192       -6.59101116923597
C            3.09886577037767       11.69682647593243       -5.83340390772896
C            3.73230580718447       12.90516156993616       -6.03493901877018
C            3.33909383736319       14.11147038831004       -5.18965725002024
F            2.03995569680679       14.37976660753995       -5.40864444786048
F            3.53766636053656       13.80816859354934       -3.89487648227521
F            4.09625078399045       15.16589118757008       -5.54041943819822
C            4.71062785493428       13.00752516133842       -7.00237100022511
C            5.05513200263651       11.91167346842629       -7.76236835733005
C            5.33268878882042        6.17946614539697       -9.34596080689351
C            4.95114234739598        5.89567344791863       -8.00540528375935
C            4.89176891609501        4.62519822011884       -7.54229142076217
C            5.21056724166587        3.51691890594756       -8.37452475363605
C            5.60176898779553        3.76205571750755       -9.71405521463404
C            5.66105763219686        5.09972924736729      -10.20272895734893
C            4.83917778112288        0.56069097213440       -3.30908532185557
C            4.44882342301328        0.23172749203861       -2.03513011891921
H            1.26892558582231        0.08924446973026        1.20743543991221
H            0.70937541762555        0.20363080137645       -0.45642517499795
H            1.32498399500896        1.64681688355581        0.37700748908631
H            3.27707279055474       -0.42442176181088        1.69441982424367
H            4.64691374969118        0.14616682903654        0.74927378341762
H            3.88423001050255       -1.41118666242546        0.36193350394206
H            1.40384708793128        1.68481112404888       -2.02970775775072
H            2.10593315415922        2.25554041258220       -4.29995713331188
H            5.42725124074504        0.13664379373000       -8.39674325346283
H            7.08064247745474       -0.65520078241994      -14.16801436613709
H            7.68800423999365       -2.60226653223404      -15.56340811503480
H            7.26253865748095       -5.15500704762965      -12.21420589310672
H            6.65506181460309       -3.21840757020062      -10.80322067561187
H            6.56439664818110        2.14477836856255      -12.55927404116420
H            6.65662921276961        4.42427903149382      -13.39478086069522
H            6.82903016488899        9.54666404717647      -15.70663074279762
H            7.33895765564184        9.96933381328001      -18.08829554847977
H            7.77818987330234        5.81160194215494      -18.74739868640474
H            7.27146342589592        5.37107995656420      -16.36900681839466
H            5.79342601533847        8.72073084220946      -11.53725154082901
H            2.94137075263579        9.65595108820523       -6.43569897103212
H            2.33535828390164       11.62913939015660       -5.07658656834708
H            5.19701138070437       13.95681303896499       -7.15209093301172
H            5.81863782275509       11.99205287004127       -8.51750432829097
H            4.70662869860751        6.71728940327340       -7.35532221526044
H            4.59951651884359        4.43670796686067       -6.52413811443472
H            5.80162778876562        0.25015451083207       -3.67897043607820
H            5.10879842637170       -0.34513834888569       -1.41256086002433
