96
 energy: -20.514388759842 gnorm: 0.000422329964 xtb: 6.5.0 (97a52f5)
C            1.53238692562950        0.20072369564296       -0.61924969080937
N            2.87164040577028       -0.20688206191318       -0.19376210138517
C            3.65040330754431        0.77656409261416        0.55889784655487
C            3.37351869756221       -1.48975978175350       -0.46971257771360
C            2.65680055893902       -2.39072204106650       -1.26444958205027
C            3.14357221860820       -3.64786675526033       -1.52477119948818
C            4.36718491725655       -4.06393564924629       -1.00500502911220
C            4.85624985951503       -5.35434314362574       -1.26130839739343
C            5.26816312008139       -6.48692957998662       -1.47270271761066
C            5.72492556040291       -7.79163774063347       -1.70408626599062
C            4.92061816763083       -8.86413504156741       -1.34369553921479
C            5.30152797925192      -10.18314149226314       -1.54005177007517
C            4.43061670026459      -11.21878394350962       -1.16547389894312
C            3.67663679508839      -12.13344560535691       -0.86804939170375
C            2.80416368447167      -13.19306696560905       -0.55124557160258
C            3.25393634199503      -14.50856022020557       -0.54770662722205
C            2.39525422164710      -15.54376148362324       -0.24988523358167
C            1.07368823131252      -15.28838821304601        0.05108744520264
C            0.13390629868246      -16.44977024067698        0.36493327498867
F            0.01108518048618      -17.20698010427917       -0.74089492338705
F            0.66783262649047      -17.17250901804574        1.36692146077045
F           -1.06677374461553      -15.96391852024094        0.73125540547248
C            0.61583213467931      -13.98674898685340        0.05116425450517
C            1.47020023618081      -12.94779972874261       -0.24615484212955
C            6.55931309354315      -10.45769126339104       -2.12648863565982
C            7.00798525642234      -11.78755350952335       -2.35057254962033
C            8.21263631867980      -12.04021198669196       -2.91549025053705
C            9.08076273091611      -10.98669793591719       -3.31117822714237
C           10.33968038310342      -11.23997258905399       -3.90485677915729
C           10.78780604477989      -12.55167910863039       -4.12833788377620
C           11.15800685905911      -13.70133971422115       -4.31493984116497
C           11.57232233244159      -15.03093991191047       -4.52669016656669
C           12.56724133163891      -15.32785582967296       -5.45120672881902
C           12.96873493476964      -16.62938215487603       -5.65744628219562
C           12.38828040701791      -17.65898583279752       -4.94657984418703
C           12.84236323173815      -19.09540998933240       -5.19370533017694
F           12.51514822436715      -19.43319861899720       -6.45466270263592
F           14.17655307838270      -19.15596420740416       -5.02705925225129
F           12.22763258798848      -19.91304936968571       -4.31885377898546
C           11.39836054519418      -17.37678103638569       -4.02768678301878
C           10.99303162861439      -16.07705795737031       -3.81758459992133
C           11.14178261866410      -10.16977222999784       -4.27208698565874
C           10.75985448736470       -8.84891452196438       -4.08078041707219
C           11.62540265558444       -7.82075950140230       -4.47846817111814
C           12.38228133261521       -6.92583904750700       -4.82965983298831
C           13.25853758142638       -5.90828457659864       -5.23789558458240
C           13.06317426170333       -4.59005458479741       -4.83247963118491
C           13.91980354428902       -3.59445417614972       -5.23271339860870
C           15.01442977277491       -3.87245748946703       -6.05836306551714
N           15.89078257546862       -2.85444033163745       -6.46996738845549
C           15.64240688654199       -1.45035889061342       -6.14227944861757
C           17.09256770396576       -3.14603612495149       -7.25166270608089
C           15.20602226502423       -5.19835032839774       -6.46115358234475
C           14.34712417230409       -6.19145057800013       -6.05967068073245
C            9.50498889882182       -8.57196667281407       -3.48838478807148
C            9.05496427311762       -7.24220813048160       -3.26576715245366
C            7.85176604486589       -6.98929746829951       -2.69683634446275
C            6.98454902283938       -8.04248386444189       -2.29800119308710
C            7.39963067062530       -9.38153431433206       -2.50648180396503
C            8.66614426960103       -9.64747058139146       -3.10353382056907
C            5.08743455838045       -3.16990851713604       -0.21613262169767
C            4.60365063342514       -1.91185540610525        0.04580005329381
H            1.26016366889108        1.16099768130046       -0.18703645564172
H            0.79854972473533       -0.53372635133948       -0.29390604209282
H            1.49776744712997        0.28841498667459       -1.70316144416172
H            3.16456364257295        1.74966776754345        0.54950942079526
H            4.63688414147038        0.89005578133947        0.11430056304601
H            3.75601461833311        0.45374101624893        1.59256943060769
H            1.71275731383929       -2.09133996867884       -1.68278544734754
H            2.58037276570950       -4.33170183077409       -2.13662407065978
H            3.96282338575272       -8.66408007024217       -0.89697235557876
H            4.28476256024135      -14.70931682114395       -0.78464052356869
H            2.74186247772002      -16.56328208179243       -0.24936753919305
H           -0.41809601344467      -13.79837434652637        0.28501820904435
H            1.11144210540899      -11.93266907831586       -0.24895675892452
H            6.36787031783183      -12.60209069890069       -2.06083017603360
H            8.53021689601988      -13.05555470665286       -3.07480861785337
H           13.02078903108539      -14.52478371922802       -6.00665510082643
H           13.73913067365579      -16.86070675813290       -6.37335460326382
H           10.95007459728613      -18.18784664439550       -3.47960274129737
H           10.22035021548213      -15.85808024861355       -3.10056511483952
H           12.09739912121172      -10.37120766341117       -4.72278964596749
H           12.22598569346951       -4.36186463668093       -4.19525074184673
H           13.75099414983481       -2.58613562207999       -4.90015315538256
H           14.63772951528636       -1.16866220041453       -6.45058739856354
H           16.34625525423652       -0.79856105203448       -6.65486844161956
H           15.74696998383401       -1.29522491902944       -5.07046270489899
H           17.68768936796540       -3.90624723435394       -6.74994159493289
H           17.70983021188919       -2.25788406153089       -7.36630324648674
H           16.81414137104293       -3.50171068409089       -8.24151611679171
H           16.03421611638065       -5.44163680807879       -7.10200349808998
H           14.50605245049217       -7.20774123465037       -6.37761901452877
H            9.69289957329643       -6.42775074544285       -3.56055233770411
H            7.53337819446966       -5.97384355366880       -2.53948186999918
H            6.03316263754075       -3.48303327282156        0.19212852371084
H            5.17363914634656       -1.24443333813190        0.66663448278166
