101
 energy: -21.300538013149 gnorm: 0.000853884669 xtb: 6.5.0 (97a52f5)
C            1.28279765716422       -0.54076003620360        0.07313950505538
N            2.66270078642058       -0.06644737010554        0.17588745801883
C            3.44045429134689       -0.02494009725293       -1.06251958753475
C            3.21164345764260        0.34016946725797        1.40461396507157
C            2.48966626138373        0.21219362049667        2.59598832635658
C            3.02672058351175        0.60958182233200        3.79580366302811
C            4.30799162349480        1.15341670139231        3.86245383484707
C            4.85075207351178        1.56420804073219        5.09059780083041
C            5.30452830840124        1.93727248322434        6.16426097340346
C            5.79517936712021        2.39489263481683        7.39525956510579
C            6.29903176670954        1.48557779238147        8.31520308185710
C            6.78578821659552        1.87038090480186        9.55701106045737
C            7.28877228823968        0.90086643435271       10.43591093819592
C            7.74352482130928        0.07268560332223       11.21381391133439
C            8.27538584334585       -0.86698160404641       12.11158544418183
C            9.27345965747588       -0.50586455968544       13.01429270970642
C            9.79756531715817       -1.42289062681554       13.89212677304205
C            9.34700264626981       -2.74725246154562       13.90662613383568
N            9.88465790499361       -3.68816398337332       14.80236791145284
C           10.86753792105912       -3.30715771065109       15.81702197309644
C            9.49884786964440       -5.09875223453290       14.75524493313438
C            8.34418545137654       -3.10396613453872       12.99872854901157
C            7.82166919381379       -2.18440356729510       12.12240519912052
C            6.76582343228941        3.24121245769225        9.91200069436127
C            7.23480888870283        3.69708661283756       11.17312680957369
C            7.20741934254483        5.01119021890668       11.50458654791605
C            6.71388706638900        5.99229122731640       10.60316542240970
C            6.68022010673851        7.36774733182996       10.93829532269790
C            7.11701701658994        7.82508193385327       12.19176006752633
C            7.48364129903210        8.21126507358705       13.29226428863206
C            7.89030676286010        8.65625889031103       14.56567124652683
C            7.71019474855351        9.98141685676500       14.94694095753222
C            8.10498945340657       10.41382952903657       16.19416784139514
C            8.68437420534445        9.53521262795134       17.08599722585645
C            9.12223565138082       10.03672904335263       18.46216760856594
F           10.14507365682815       10.89742653596320       18.29394697639383
F            8.07762876103518       10.66024741102959       19.04165547087102
F            9.51341937305934        8.98926896270703       19.21430043531144
C            8.87083518474736        8.21814436471519       16.71794355995451
C            8.47799897784297        7.78029855200064       15.47183549940296
C            6.19909768557486        8.27900062757035       10.00909337037534
C            5.73855259014184        7.89770207232497        8.75602683158579
C            5.27988690655707        8.87623732159274        7.86314454932345
C            4.89780910916566        9.72688278754939        7.07055213871136
C            4.48117186059559       10.70466366551854        6.15290701044173
C            4.01359332075628       10.34769727078323        4.88978778576421
C            3.61385959969528       11.30387558337376        3.98851207604761
C            3.66328969647991       12.66457931991951        4.31010082778407
N            3.25733302904722       13.64485183598083        3.38771600426710
C            2.71777995570091       13.28629799492700        2.07588104085918
C            3.36231282591451       15.07231565468785        3.69069591259398
C            4.13201883975771       13.01677436941448        5.58035895247563
C            4.53166591273136       12.05836255994133        6.47913137846291
C            5.74878780919388        6.52601070594123        8.40513043449713
C            5.27753458394591        6.06987795437748        7.14491847170989
C            5.28926953029486        4.75384690969638        6.82035270041686
C            5.77902792606086        3.77251328147667        7.72349884233383
C            6.26293644169110        4.19170107949890        8.98827692730776
C            6.24210393510208        5.57443349389117        9.33316670870602
C            5.03152090885225        1.28411811242536        2.67873888855056
C            4.49726314255151        0.88699250914873        1.47737892800366
H            0.99927601807491       -0.70154737966050       -0.96479212392835
H            0.60280747649178        0.19532693658634        0.49756207580104
H            1.17113708447125       -1.48149274375028        0.60874515426677
H            2.89792903861611       -0.49122861710022       -1.88212901304877
H            4.37856489122363       -0.56088076022055       -0.93246029664097
H            3.65267899736914        1.00713327872035       -1.33461931184143
H            1.50108771592034       -0.20982808061514        2.57140917380976
H            2.45974054992816        0.50501718282572        4.70507774708503
H            6.31170072880109        0.44171946319469        8.05616953124965
H            9.63174576408033        0.50942160409010       13.01260622586333
H           10.57195832526809       -1.12135089464915       14.57426667545012
H           10.49676904213555       -2.46555092700047       16.39930737325561
H           11.80536801867705       -3.02741639772626       15.34044859010250
H           11.06171923673154       -4.12961570112954       16.50259091607102
H            8.45801581282554       -5.21041946388059       15.05397323660463
H           10.11479842386741       -5.69616555641007       15.42430895816813
H            9.62528303150648       -5.48729445506880       13.74625074500409
H            7.97194683608847       -4.11264183422352       12.99307813727568
H            7.04965130095935       -2.47270503932544       11.42953893913630
H            7.61477808108250        2.97349800072351       11.87266695737415
H            7.56582117909213        5.33113226860621       12.46713943505585
H            7.25594352306608       10.66756243405065       14.25261802665334
H            7.96580243683294       11.43972459860892       16.48967834571890
H            9.32549458884404        7.54007119494503       17.41950259406578
H            8.62188304995247        6.75214295435024       15.18686002843030
H            6.18222434213470        9.32235534123090       10.26986418324618
H            3.97215885354509        9.30426715478356        4.62771051061745
H            3.26252243891358       11.00323553785740        3.01789236887622
H            1.87569321339292       12.60658024045595        2.19137572300726
H            3.48749793560577       12.80458970162959        1.47606011009090
H            2.36747706135226       14.16660706591003        1.54122043616973
H            2.69071078136225       15.32963978996987        4.50742905088890
H            3.09867634016496       15.67802964517308        2.82632348740151
H            4.38306717660223       15.31968912638717        3.97550502373092
H            4.17673723953191       14.05457409854154        5.85769484607404
H            4.89262054673292       12.34407362950435        7.45243670116878
H            4.90324250050119        6.79410020357284        6.44299763809198
H            4.92469306766976        4.43310446882130        5.86035626967028
H            6.02124349756861        1.70595124464109        2.71958614591082
H            5.07238100804088        1.00469282839701        0.57662950623264
