66
 energy: -13.893845702650 gnorm: 0.000715395803 xtb: 6.5.0 (97a52f5)
C            1.19219542912168       -0.08503196883676        0.58419119071423
N            2.55531815646268        0.12856819502027        0.09666977074856
C            3.30013334057078       -1.05703063737203       -0.32859063401277
C            3.12588782732999        1.41405933025430        0.04472310374800
C            2.42245259607944        2.53610967554636        0.49521466341564
C            2.98199420580424        3.79038380551331        0.44659046390186
C            4.26777551835590        3.98252903549244       -0.05417019156930
C            4.83584456375138        5.27012381942865       -0.10706021741903
C            5.32308672668898        6.38979131859584       -0.16092670422951
C            5.87524070265335        7.68579129916245       -0.23846238926481
C            7.23201196346327        7.85928660552797       -0.49173434908944
C            7.79922725832138        9.12977497572741       -0.58780808782551
C            9.19116336720855        9.32937252784480       -0.85456194909246
C            9.71410293061421       10.57185166131500       -0.95903367191399
C            8.89636473522714       11.73671794828496       -0.80757218873891
C            9.40706547471676       13.02870683813078       -0.93002774308587
C            8.59420381549479       14.14866532430330       -0.78840692218961
C            9.13039622715999       15.44493243649227       -0.93977150195744
C            9.58691224818457       16.56778728212828       -1.09724345269365
C           10.10525707116848       17.86114921967262       -1.30173254126101
C            9.48362559894710       18.97831448528924       -0.74799802475692
C            9.98307798805473       20.24134444142963       -0.95761252032761
C           11.13009803738369       20.44525851102875       -1.73196280147018
N           11.64234067398491       21.73890397324854       -1.94544147753150
C           10.92714323308639       22.93116997410253       -1.48962573424999
C           12.89943350145440       21.96017868179289       -2.66070618791069
C           11.74964228606043       19.32023367008063       -2.28608558527675
C           11.24808597522725       18.05837551872564       -2.07403501004635
C            7.24215311997097       13.97509967331721       -0.51094090838886
C            6.68184364633137       12.70483277310330       -0.37884487923701
C            5.29169173241992       12.50529026081682       -0.10281102010899
C            4.76878567524080       11.26283901017717        0.00203166764591
C            5.58475979459353       10.09799762952764       -0.15866190006217
C            5.06716517103987        8.80583987709893       -0.07231311392070
C            6.96623208298599       10.26323011247880       -0.42306131409947
C            7.51688246210152       11.57143463739338       -0.53303632388941
C            4.97281484410835        2.86883268778877       -0.50538509503523
C            4.41619811214303        1.61312864478902       -0.45773770863134
H            0.89899796409641       -1.12869299607760        0.48966178840425
H            0.49023929353339        0.51529920388750        0.00807188933085
H            1.12266355028090        0.19536459410858        1.63377502687944
H            2.73128356077797       -1.96624419026413       -0.14442762386543
H            4.23631208594714       -1.12873219780584        0.22220360734435
H            3.51731208584192       -0.99954805423797       -1.39376661152553
H            1.42909240294506        2.41397057002120        0.88850886295633
H            2.42829692974975        4.64503042653511        0.79667595031434
H            7.85513673265887        6.99259059912615       -0.62071522628065
H            9.82054440965859        8.46450488314977       -0.97410035952813
H           10.76278106918897       10.70323431601046       -1.16255814073926
H           10.45172979768665       13.16437386979434       -1.14537657729846
H            8.59942664938492       18.83721473024668       -0.14982835399612
H            9.48924501894736       21.08703807445465       -0.51344587747975
H            9.89197993941753       22.89756450049548       -1.82514091638542
H           11.38006485546689       23.83623859010910       -1.89080885846419
H           10.94820046223109       22.98789114908638       -0.40258494771190
H           13.67991699521565       21.31738102293399       -2.25780780451432
H           13.23116085531174       22.99154427420694       -2.55807539592250
H           12.77028096633745       21.74307095999669       -3.71948043349547
H           12.62566557345053       19.44724940070191       -2.89669981149580
H           11.73394652491444       17.20164962582952       -2.50938693391984
H            6.61491640273790       14.84171798578250       -0.40303104604120
H            4.66274056059439       13.37024582792135        0.01836281201258
H            3.72037267380538       11.13142583878798        0.20692957083583
H            4.01843248802316        8.67002381444636        0.12222640429738
H            5.96659559572689        3.00646745324286       -0.89654540864426
H            4.97866646244857        0.77012247324281       -0.81733429584368
