37
 energy: -7.692259220618 gnorm: 0.000964177678 xtb: 6.5.0 (97a52f5)
C            1.29822375534027        0.01669067114060        0.67698107184250
N            2.64984766972623        0.15656777871591        0.13523875859588
C            3.48074262945361       -1.04744452503932        0.12298948985602
C            3.13514523712333        1.39181378529415       -0.33313854166681
C            2.38942847351121        2.56509037863915       -0.18315933611223
C            2.86556912223749        3.76981306880104       -0.63977275727255
C            4.10542298821347        3.85765018137898       -1.26777910920645
C            4.59052562867209        5.09004129926323       -1.73494739695487
C            5.00695639489518        6.16294686154345       -2.14835840736434
C            5.48995709822350        7.38280663339328       -2.63384839854716
C            5.10753521051526        8.55030767334591       -2.07460164334090
C            5.58916145218113        9.79217627906879       -2.56617425223177
C            5.20537354242200       11.01726833029999       -2.00746344976146
C            5.68748047576540       12.19640616906212       -2.51258929002694
C            6.56534477568178       12.18521949015203       -3.58899221699857
C            6.95437773098409       10.99811605253576       -4.15094255540104
C            6.47925465305611        9.77804592351738       -3.65663079131037
O            6.89484173419719        8.59607493034091       -4.25135953594086
C            6.42236945966439        7.38960912331944       -3.76949075613687
O            6.76172960938117        6.32346773067858       -4.26592681291920
C            4.85209982143934        2.69230248278274       -1.42127486451361
C            4.37983256627029        1.48656451638598       -0.96348699257946
H            1.02710536690686       -1.03181256449566        0.78163194789866
H            0.57575651360731        0.48166631439988        0.00925897350916
H            1.23817359051528        0.48873955080820        1.65563638211534
H            3.00252723187232       -1.85577906294428        0.67195767465024
H            4.44047153410926       -0.84362802171033        0.59362519367571
H            3.64617683164216       -1.37529444953385       -0.90133697467675
H            1.43478359231868        2.52449854270327        0.30981694356851
H            2.28236321095996        4.66621522091066       -0.51424260804117
H            4.42489865340707        8.54309414190667       -1.24388567106696
H            4.52382791982224       11.02208781031895       -1.17442483123516
H            5.38603516024970       13.13423387190856       -2.07601977421377
H            6.94124200598755       13.11520903763890       -3.98293848909331
H            7.63281504253333       10.98068901475909       -4.98540947958898
H            5.81020934845210        2.75086262479046       -1.90911216803415
H            4.97055396866844        0.59890313388099       -1.10165933151141
