56
 energy: -11.235143513080 gnorm: 0.000784863225 xtb: 6.5.0 (97a52f5)
C            1.00017008329229        0.35818629192771        0.32581390926622
N            2.39698206890658        0.08776917336434       -0.01642137184627
C            2.85949429569903       -1.29141118411146        0.14223349824754
C            3.25712145792388        1.10786192722712       -0.46810915371028
C            4.56377327748682        0.82391606782742       -0.87834591845746
C            5.40326054753406        1.82177799687392       -1.31350467797033
C            4.97695207196647        3.14757748573212       -1.35962663476151
C            5.83708248993501        4.17257550454301       -1.79662446363612
C            6.57940505694412        5.07390184699427       -2.16035581302958
C            7.43250758168442        6.12320301660865       -2.55508898341894
C            7.43905224395983        7.33106267521427       -1.86277688714995
C            8.27493395467926        8.35704251998182       -2.24032759406126
C            9.13833308505113        8.21537906807008       -3.32653676153243
C           10.04191051295199        9.31666944157996       -3.72821600470331
C           10.30155126849708        9.56702210716717       -5.08513542162461
C           11.15413497201355       10.57007256641417       -5.51109568529229
N           11.44451652477727       10.70990284535352       -6.89102571084065
C           12.82045853188679       10.85253980816739       -7.38273986212599
C           10.49526661072646       10.25790183751123       -7.90742585869256
C           11.74896368463682       11.42773212304659       -4.52136500960239
C           12.52433744606007       12.55245535036759       -4.86063176647734
C           13.08199424206179       13.34459193732487       -3.89693956646046
C           12.88220040009827       13.05890789863174       -2.54407561725765
C           12.10859997707695       11.99942743253765       -2.17402256003923
C           11.50813719806852       11.16824506814772       -3.14796276115291
C           10.65767623878757       10.10828150043733       -2.78037477142124
C            9.12758801894788        7.00516978635228       -4.02043582016427
C            8.29126764682579        5.97968565676075       -3.64148061254415
C            3.67527185970445        3.43534933545599       -0.95437139890701
C            2.83374504367626        2.43981709223703       -0.51856906174155
H            0.45571167062180       -0.56551947891786        0.51244808771836
H            0.50664052405170        0.87780424683084       -0.49353627858417
H            0.94722522821735        0.97480100246319        1.22138118189854
H            2.11162551479197       -1.90015478051349        0.64750968088772
H            3.76981429776050       -1.31616488281588        0.73911071149018
H            3.06044032178552       -1.73280385791987       -0.83267721084199
H            4.91368025307826       -0.19280236497981       -0.85842816290245
H            6.40766896593767        1.58865328217880       -1.62417838106157
H            6.77668020078311        7.45222024186371       -1.02259153073292
H            8.25776125695947        9.28912496808918       -1.70254366922776
H            9.83860709280119        8.93430738954891       -5.81844771166297
H           13.52988344141575       10.80487472844155       -6.55853673307787
H           12.93982616441233       11.80046496600841       -7.90464784565485
H           13.05676706588117       10.04603587322519       -8.07499125631974
H            9.47853225772479       10.50605297620358       -7.60904371145468
H           10.57174138675663        9.18110932572985       -8.04508183529859
H           10.69987023487910       10.74547736903513       -8.85865981215746
H           12.64869886626965       12.80888154497870       -5.89677110805397
H           13.67467796775556       14.19945572052101       -4.17939308177722
H           13.33231111906577       13.68742242814156       -1.79301403503476
H           11.93787483320664       11.78812823230243       -1.13235083562399
H           10.48701492100838        9.91476036844261       -1.73710280509315
H            9.79748804461831        6.87137225991489       -4.85197777990315
H            8.29494412540340        5.04855217112571       -4.18213296713166
H            3.33660547404157        4.45720651171951       -0.98496318517127
H            1.83679037891267        2.68900558064344       -0.20170138413116
