33
 energy: -6.970919462906 gnorm: 0.000738403254 xtb: 6.5.0 (97a52f5)
C            1.29887689699665        0.41335164841985        0.30493499023940
N            2.64530830002013        0.04750782751747       -0.13557251504207
C            3.48055428229541       -0.66909077100045        0.82784031956500
C            3.11383834553899        0.36813834394381       -1.42450341575646
C            2.36041867681064        1.16909757683316       -2.28806974612700
C            2.81462347608580        1.47504018466777       -3.54825814602885
C            4.04063159670371        0.99553118873441       -4.00296588940235
C            4.49877975040701        1.30449275042933       -5.29674939555578
C            4.88897517614792        1.56976296606679       -6.42440479091696
C            5.33283822992774        1.87370990260153       -7.72606206258521
C            5.45682892102323        3.19365862700312       -8.14881872687668
C            5.88395213347022        3.48798101843126       -9.42422314890916
C            6.20124875637693        2.47176738172072      -10.31841175999717
C            6.63363998198601        2.77107560777700      -11.62023544831322
N            6.99205402719732        3.01847965052029      -12.69682869424478
C            6.07895432422628        1.15232687746691       -9.89774608153325
C            5.65166664169898        0.85819007096895       -8.62243966832100
C            4.79705318454351        0.19974741393238       -3.14575997783575
C            4.34575063316624       -0.10663238657321       -1.88449242606465
H            1.04295650884969       -0.08911717601578        1.23535765621845
H            0.56727295968486        0.12003392192236       -0.44531507538958
H            1.23916945913331        1.48836602577139        0.46291605905771
H            3.01431263959680       -0.68938788353541        1.81066508857382
H            4.44522427092074       -0.17516401827439        0.92494505825936
H            3.63542415005014       -1.69425122078676        0.49812524588387
H            1.41459796345296        1.55854361688708       -1.95690055179500
H            2.22413737657648        2.09310907071243       -4.20283193956203
H            5.21081189057111        3.98590063119046       -7.46261066417607
H            5.97548526438387        4.51191667392771       -9.74410266236100
H            6.32174334772138        0.36053854567777      -10.58572132782885
H            5.55653106571026       -0.16597647978141       -8.30442980214880
H            5.74598762267189       -0.17595082684480       -3.48847401875038
H            4.94472214606926       -0.72839676032879       -1.24360648226174
