34
 energy: -6.913923328029 gnorm: 0.000763849642 xtb: 6.5.0 (97a52f5)
C            0.96849464775797       -0.12909804955749        0.46404854671055
N            2.36734724731546        0.03926827417178        0.07203718530054
C            2.92396585435492       -0.97182919830754       -0.82705630054680
C            3.13369617986753        1.13232871252548        0.51945742351124
C            4.40423112780130        1.38648833134389       -0.00561388401456
C            5.15142662854809        2.45272319216101        0.43279008951416
C            4.66540929749439        3.31233827764514        1.41503300066358
C            5.43554769469707        4.40120589672117        1.86178721632364
C            6.11651938576882        5.34496765517433        2.23608341447367
C            6.91372150706090        6.42547980472995        2.65890239046765
C            6.73260451260478        6.99878187078133        3.91470799576311
C            7.51243834070975        8.05483906135250        4.32667449802098
C            8.50025907589284        8.57141834235829        3.49308006726375
C            9.33694938378993        9.69149562955018        3.91513661366042
O           10.21089050780313       10.19967409849444        3.26373503511904
C            8.68308661766582        8.00094426158992        2.24025433373860
C            7.90312173052342        6.94495843643604        1.82868254947611
C            3.40017009669104        3.06379279986159        1.94200151438172
C            2.65028295967669        1.99854400006005        1.50506403896360
H            0.48269356446993       -0.88897342605286       -0.14450864143070
H            0.42650404756745        0.80472336127716        0.32869282959520
H            0.90718244404464       -0.43043179178176        1.50782427507304
H            2.26904530023782       -1.83791804632463       -0.89218544327211
H            3.88983096811483       -1.31065870544742       -0.45834240701605
H            3.04736461051044       -0.55574559065605       -1.82452314999994
H            4.79585030992092        0.74459729690160       -0.77412307213905
H            6.12721209590571        2.63843541167080        0.01756270618852
H            5.96966252195277        6.60245466405477        4.56268536312581
H            7.36404704917339        8.49053288359345        5.29966922072843
H            9.16118076258860       10.10543004848788        4.89836652839561
H            9.44745465116408        8.40073848715870        1.59642236335086
H            8.05029773845641        6.50730883187494        0.85616956727925
H            3.01685602171153        3.72083177663054        2.70390980679572
H            1.68170511815263        1.81906340151687        1.93594432452948
