21
 energy: -4.123365922356 gnorm: 0.000737609341 xtb: 6.5.0 (97a52f5)
C            1.08448287354850        0.04757948130498       -0.43117504880360
N            2.50630552663579       -0.02763746368948       -0.09817263109404
C            3.14028183974450        1.20901478519409        0.35601118658141
C            3.22498203513851       -1.23756846990495       -0.19024580949407
C            2.67177690102447       -2.35834085669472       -0.81552032185875
C            3.37505151869810       -3.53488648849726       -0.91059408307777
C            4.65841223372187       -3.64271896886878       -0.38470779472098
C            5.37669597140424       -4.84419736011882       -0.48478018980989
N            5.97128599101160       -5.83835389748433       -0.56796616575552
C            5.21424632238494       -2.53182176854210        0.24185392771727
C            4.51375826957211       -1.35371581073038        0.33777625556094
H            0.64682282207273        0.96955035608240       -0.05328747403279
H            0.54985384508419       -0.78612068378562        0.01991420088815
H            0.95279250131064        0.01726613802923       -1.51105537685590
H            2.52405137358059        2.07123272215332        0.11000055948532
H            4.10398906600597        1.33715238219581       -0.13269072219760
H            3.28522495896672        1.17997109674919        1.43401399342502
H            1.68623558926302       -2.29287584044656       -1.24045541088246
H            2.93882418238182       -4.39031003654757       -1.39785466783146
H            6.20615832816125       -2.60905557793915        0.65353808434349
H            4.95755785028960       -0.51197373845948        0.83841748841325
