67
 energy: -13.450197484752 gnorm: 0.000786206498 xtb: 6.5.0 (97a52f5)
C            0.66102263840213        0.58251718187712        0.39353787412454
N            2.12258453061693        0.63883908370239        0.35330199638247
C            2.83624865214080        0.00709376882038        1.46404897637882
C            2.80863364046611        1.22738352680085       -0.72049620679489
C            4.20429584200578        1.34247223834671       -0.70947457475713
C            4.87635964285680        1.90582157090006       -1.76297613724359
C            4.19100831037105        2.37656595734899       -2.88823244883999
C            4.91629941186879        2.97963390174920       -4.02877676434143
C            5.99747882770897        2.36359640278503       -4.60886464421748
C            6.46092205309176        1.00988640570173       -4.40209749151876
C            7.78418961814243        0.67295721051044       -4.71924706156810
C            8.25425792616131       -0.60252432502834       -4.53936817208538
C            7.42803668581897       -1.62218200118938       -4.04686687595572
C            7.98652936145962       -2.94400418847029       -3.85690666527400
C            7.36890822119250       -4.07877202248892       -3.42777302507422
C            6.00292594740108       -4.12540222843778       -3.13100792162647
N            4.86826948005549       -4.17117911218338       -2.88204162479311
C            8.12334433963030       -5.33840260300606       -3.27955512388740
C            7.45322435892892       -6.56354503058221       -3.29799012306324
C            8.13410738286128       -7.75185106930798       -3.15888793198274
C            9.50387658493538       -7.74771720480767       -2.98988037767491
C           10.18753387660381       -6.54891006015627       -2.95745501587639
C            9.50892389368537       -5.35841371993607       -3.09896727297145
C            6.09889635043479       -1.28972515597613       -3.76022099271605
C            5.62794077689659       -0.01614544333684       -3.93622774664229
C            4.50776470562329        4.31772991992710       -4.48956209150493
C            4.74861020890028        4.75073848162201       -5.79820084977624
C            4.36664464862390        6.00095052224955       -6.21347335053337
C            3.72058467269171        6.88805466227805       -5.34367361949722
N            3.32461515260683        8.16508009841357       -5.77043312625511
C            3.62527628356898        8.65150606349859       -7.11751719616967
C            2.58705854880559        9.07277123442737       -4.89065925594777
C            3.47646052227166        6.45295623637110       -4.03549929652131
C            3.85806345819965        5.20237679944600       -3.62255523319725
C            2.79591024114755        2.27798264212703       -2.89401395220382
C            2.12257156883316        1.71674405993026       -1.83952733066412
H            0.30910582131112        0.20981894458407        1.35344255214508
H            0.29141082647444       -0.07863235040455       -0.38816028621895
H            0.24349407223662        1.57692007438877        0.24676294861431
H            2.14927552476337       -0.51987936422306        2.12314536584306
H            3.36170785483337        0.76082789693237        2.04762991032232
H            3.55626370306889       -0.71506603214227        1.08323176035293
H            4.75608852819716        0.98688213135696        0.14212348671323
H            5.94934120871723        1.98879861430176       -1.73858442263118
H            6.58452549682423        2.95249457309945       -5.29191775960170
H            8.43937220350249        1.43954807569756       -5.09628085238375
H            9.27888407562602       -0.83238088834398       -4.77693672733387
H            9.02792717158010       -3.02792934975878       -4.11023037463417
H            6.38514876055065       -6.56903389193602       -3.42588196455603
H            7.59720455746754       -8.68620911394060       -3.18004095486327
H           10.03745914932086       -8.67745784878015       -2.87818358014591
H           11.25615684778964       -6.54477553823466       -2.81640058813711
H           10.05232870525705       -4.43200568813610       -3.04186927877831
H            5.43013550826396       -2.04531626152479       -3.39663026445696
H            4.59596161187107        0.20204660621167       -3.72785255811043
H            5.21889019240480        4.07984537191789       -6.49569683402372
H            4.55651988166365        6.30344502488840       -7.22772164925071
H            4.69374787535512        8.57699003266921       -7.31237675418325
H            3.33443932198706        9.69383027297997       -7.23366988497876
H            3.08581957273109        8.06103388391623       -7.85612481770017
H            1.68577348393617        8.58597503618810       -4.52237023857129
H            2.28943167902185        9.97701939990869       -5.41777586710263
H            3.20878760844255        9.35949757212817       -4.04438760727853
H            2.98627986209081        7.11362393813958       -3.34307253129411
H            3.66738900876646        4.89016672611703       -2.61042617638560
H            2.25499578581601        2.64284341263657       -3.75024882793801
H            1.05054573514085        1.64142493541834       -1.87444456912148
