63
 energy: -14.170291133424 gnorm: 0.000360034528 xtb: 6.5.0 (97a52f5)
C            0.86947979340701       -1.80590060184712        1.47502325471799
C            1.97642897263945       -0.97140218843696        1.49818305166865
C            2.19401251115545        0.37805284936451        1.00533658882536
C            1.43742959933995        1.18374882975665        0.18976663599339
C            1.87705385139623        2.49612504012021       -0.08429888146427
C            1.14038557437471        3.36015513032462       -0.92537657218958
C            1.57390531566246        4.62747342792750       -1.17602800519136
C            2.76055091964691        5.09966979918463       -0.60146906424664
C            3.49982258247619        4.29869490107809        0.21600575161950
C            3.08795882350900        2.97666705434741        0.50089947288566
C            3.84483901769619        2.13895031828749        1.34651548262428
C            3.41811442991902        0.85228292203130        1.58941363958977
C            3.94513523710910       -0.21885788817236        2.42816771989543
N            3.09584134569441       -1.24683898097650        2.25797426188708
B            3.33314351061103       -2.52290458279462        3.06160429203175
O            3.63040378571318       -2.12111413736862        4.46434590824907
C            4.64960356290987       -1.20508957489332        4.55105428014457
C            5.47444273077576       -1.18104814551871        5.68359877340167
C            6.49499814388036       -0.27297856828430        5.79341297832432
C            6.72616502781945        0.65049549686173        4.78180948810855
C            5.92747558231448        0.66953511939062        3.66521896425244
C            4.88223696061599       -0.24418676950815        3.52068918995834
O            4.48221564070090       -3.34844404563542        2.59669398303010
C            4.53820841858203       -4.57234613317858        3.21720311580627
C            5.77584496431672       -5.19496670118673        3.42747074849664
C            5.85493912548032       -6.41718127677779        4.04243120105858
C            4.70238368065485       -7.06855795480153        4.46304092346750
C            3.47038472814362       -6.49855500019389        4.25767844525494
C            3.35534779080508       -5.25313883475438        3.63807552667830
C            2.09614710676782       -4.64120994001221        3.30350124494397
C            0.78052283592184       -5.17483052442126        2.96744918627663
C            0.20819532027226       -6.41560466871419        3.13899314489726
C           -1.10308763388900       -6.64860401209251        2.67429936968307
C           -1.73185026651167       -7.90293774591749        2.84708616487978
C           -3.00051321660027       -8.11586802881676        2.39817997945999
C           -3.70741732422859       -7.09352533743412        1.75288998056914
C           -3.13644230928891       -5.87093549154959        1.56290371384520
C           -1.82351745165051       -5.60723802885990        2.01377842567313
C           -1.21771228018920       -4.34776102047622        1.82031319797104
C            0.05523620522001       -4.13528103260151        2.29049486342866
C            0.93451557920928       -2.98149556418276        2.20669052314744
N            2.06877646791669       -3.36119263049039        2.89526814817455
H           -0.00818810902971       -1.54950237504863        0.91246471702349
H            0.51932732666108        0.81874580754716       -0.23155218788567
H            0.22722395217729        3.00109755390459       -1.36775484174982
H            1.00135972237382        5.27427749020220       -1.82046193587736
H            3.08857978940234        6.10487000632362       -0.80970784354547
H            4.41112242913482        4.66555654966723        0.65585153206825
H            4.74325375040551        2.51242492913348        1.79800927126661
H            5.29121735423135       -1.89940249706188        6.46263295387380
H            7.12250618349809       -0.27428547190136        6.66953756324899
H            7.53245979473287        1.35886801154857        4.87807819558828
H            6.11550280601213        1.38276283753840        2.88371366503045
H            6.66464525687294       -4.68477597140497        3.10154763033847
H            6.81680096517754       -6.87625319442827        4.20181398564079
H            4.77680151102654       -8.02818597833228        4.94758137628914
H            2.58304742642048       -7.00435278735753        4.59176025383638
H            0.74983203792157       -7.20687711493433        3.61964140814852
H           -1.19184124433842       -8.69119245278965        3.34266160126290
H           -3.46690391007289       -9.07700508908992        2.53989203396956
H           -4.71058247752082       -7.27845258667534        1.40516349463321
H           -3.68250896573408       -5.08787443154825        1.06576673074956
H           -1.74551025963427       -3.56306871409353        1.31103129825765
