53
 energy: -10.495575841798 gnorm: 0.000735932020 xtb: 6.5.0 (97a52f5)
C            0.94894616186547       -0.30404059467752       -0.07494032005108
N            2.39571458273193       -0.36366773102650       -0.28634989986805
C            2.91387465345387        0.27310100786652       -1.49776005050753
C            3.24836829777882       -0.99021650640202        0.63775020925855
C            4.62580941488617       -1.08084861994353        0.40407299728056
C            5.45964387178577       -1.68402424937671        1.31039929337357
C            4.96136436221614       -2.22130611447344        2.50155754816943
C            5.85672622710693       -2.87773310581582        3.48119598526994
C            6.98726340089014       -2.26722631754318        3.95797337460146
C            7.39221663014795       -0.88650396196456        3.78864516722504
C            8.73524147251443       -0.53618243663499        3.97292265093491
C            9.15380828972160        0.76571243754075        3.84047657011466
C            8.24928709001289        1.77754024801496        3.53025218546012
C            8.67952234366025        3.10552307200032        3.39670766176928
N            9.03825237198074        4.20531993035847        3.28789778399502
C            6.90851472005489        1.44205513681733        3.36455734636292
C            6.48773575008339        0.14126630508378        3.49641415663754
C            5.54529861070641       -4.25848336174820        3.89185739866750
C            5.95849028501272       -4.77137975315841        5.12584481749340
C            5.65625826434597       -6.05743510216788        5.49628897326610
C            4.92480385625053       -6.90131474359460        4.65247506723328
N            4.61191213775435       -8.21688270739216        5.03381315719288
C            4.94643114976037       -8.73093925755419        6.36275269855598
C            3.94738488995402       -9.14311797533782        4.11624130040846
C            4.51002260167227       -6.38720014410144        3.41871449253209
C            4.80994565977610       -5.10025762071902        3.05175753734619
C            3.58440668154088       -2.14469170915291        2.73029416178569
C            2.74990887232957       -1.54304317259320        1.82352928341265
H            0.44677289583495        0.16352521035617       -0.91934191739171
H            0.72607959430102        0.27628364954858        0.81846304128894
H            0.54716173281954       -1.30873283756615        0.04240581362493
H            2.12003562779975        0.77014446448273       -2.05139642561273
H            3.36711922873350       -0.47351130245840       -2.14712712030448
H            3.66134081815054        1.01988938339901       -1.23659748496247
H            5.03512018035843       -0.67370054304316       -0.50293037002081
H            6.51604126663468       -1.75079731661637        1.11493952859482
H            7.66842958330918       -2.87907280756364        4.52303634876291
H            9.44688197231596       -1.30733306518680        4.21340620848066
H           10.19118272478734        1.01929707141957        3.97726216780103
H            6.20160967966657        2.22051438022199        3.13325128163310
H            5.44420892386650       -0.09246723987777        3.38813448695695
H            6.49986021980572       -4.13650974255853        5.80524213692394
H            5.98896374182563       -6.42647214757553        6.44991331729365
H            6.02607324361678       -8.81368494767763        6.47099489249421
H            4.50821011302284       -9.71371635585821        6.52333663115273
H            4.56131461112157       -8.06221706485294        7.12998880243119
H            4.48680590569950       -9.18584921660924        3.17183179582491
H            2.92646778230750       -8.81502717796308        3.92943649062708
H            3.91488475293389      -10.14893268428402        4.52991615543791
H            3.93919396977538       -7.00929153688521        2.75282807009012
H            4.48456566682290       -4.72491109477007        2.09708784257846
H            3.18675707001010       -2.56226434176828        3.63924883944294
H            1.69561604448459       -1.48965568860824        2.02771791894000
