54
 energy: -10.438502650113 gnorm: 0.000786187126 xtb: 6.5.0 (97a52f5)
C            0.94852564935726       -0.17982062330853       -0.31687463837616
N            2.40287491637664       -0.15532103977595       -0.47807441682707
C            2.96587636301241        0.96798059758133       -1.22818435753541
C            3.22012455840155       -1.15360189543728        0.07518455547047
C            4.60687435267270       -1.14246771416521       -0.11776783310141
C            5.40594863196715       -2.11204523649677        0.43129600111182
C            4.86241180105251       -3.13922769316138        1.21001502119752
C            5.71961720960592       -4.19114864085272        1.80106650473253
C            6.84656123568628       -3.89344292976288        2.52411267334857
C            7.27351073977406       -2.60142424862705        3.01652754173051
C            8.61710488746358       -2.40772783214902        3.36549314638450
C            9.05741599726844       -1.20308900419081        3.85420765962460
C            8.17176985042161       -0.14069214764528        4.02854423624301
C            8.62657177427179        1.14334548808503        4.54596429595094
O            7.93695778097177        2.11013531972314        4.74389675024895
C            6.83201795515213       -0.32927020835199        3.70586628592898
C            6.38991354646852       -1.53258569214778        3.21639131038063
C            5.37787136191734       -5.59956549725263        1.53486812205352
C            5.74385487310059       -6.62484813897415        2.41363811335315
C            5.41408178886944       -7.93137681875249        2.15604907239572
C            4.70086436266839       -8.28533955012614        1.00448363797801
N            4.36174584097471       -9.62205792458546        0.74194469648536
C            4.72149584446417      -10.69993296003818        1.66497325329907
C            3.65191570178033      -10.00612314019602       -0.47894305216241
C            4.33302058340617       -7.25885123572456        0.12679319395819
C            4.66063166247937       -5.95295998422641        0.38756873554045
C            3.47618709830276       -3.16025564354683        1.39167341434315
C            2.67640766318533       -2.19213262308519        0.84100954927221
H            0.47901239178337        0.64188398303454       -0.85343420109429
H            0.68804784034038       -0.09212668581274        0.73607995915879
H            0.54541067474998       -1.11208092485078       -0.70752677442978
H            2.19105545083793        1.67296726917603       -1.52201780884645
H            3.45725439642191        0.60631971891476       -2.12933646557117
H            3.69108350039308        1.49996527265921       -0.61543453546602
H            5.05099638798471       -0.36164113536044       -0.70841860923141
H            6.47015685943950       -2.09264534073819        0.27029748505229
H            7.50504562380743       -4.71279604516053        2.75468153619403
H            9.31062433156988       -3.22098106015666        3.23672877383629
H           10.09457666219173       -1.06872207890461        4.10937547358936
H            9.67865210340742        1.24401556239685        4.77508638342268
H            6.14613980400821        0.48762839894700        3.85033259066395
H            5.34614309872402       -1.66567936382909        2.99671650159705
H            6.26918070717998       -6.37793780987749        3.31969138652420
H            5.70616394004153       -8.69871860317456        2.85046051136364
H            5.80425545362920      -10.77358763308450        1.74904502964230
H            4.34130852066538      -11.65830313529338        1.31726080410514
H            4.30021992288509      -10.50550442710396        2.64952934429101
H            4.22865802579298       -9.71139755721417       -1.35371618326004
H            2.67849857573644       -9.52079840172957       -0.51374805834857
H            3.49668084247259      -11.08212407854934       -0.52280067709158
H            3.78252723091763       -7.49946950230594       -0.76500761127625
H            4.37228098446557       -5.17896965040804       -0.30258386116008
H            3.04330928460134       -3.95013266350613        1.98123365356606
H            1.61391335487468       -2.22704709086845        1.00323187973888
