36
 energy: -7.149864751361 gnorm: 0.000961703936 xtb: 6.5.0 (97a52f5)
C            1.19044251520829        0.64309982325467       -0.49044810186591
N            2.48196407360276        0.10702525044389       -0.05913450475634
C            3.02841869250864        0.64395356697330        1.18688133012520
C            3.16230121849425       -0.87117269753866       -0.80422568684705
C            4.29968237592215       -1.50702110501074       -0.29555852427886
C            4.96115682024174       -2.46051904308966       -1.02696927277100
C            4.52568734090406       -2.81800670272228       -2.29836824407494
C            5.26599875985290       -3.85236992484271       -3.05352177961673
O            5.93622611369720       -4.67121617841340       -2.44778189377502
N            5.18274432078175       -3.83446375290108       -4.44670487991517
C            5.78957721408885       -4.73495380706930       -5.33391399089929
C            5.63966316886486       -4.56367844405748       -6.71108367978395
C            6.22664933155012       -5.43739702972698       -7.59347533989456
C            6.97739743042219       -6.50330880243502       -7.12944327394658
N            7.60117931739491       -7.42903610433053       -8.07116694518439
O            7.49654294425294       -7.20200449441346       -9.28756450269168
O            8.21441444539319       -8.41165318931602       -7.62315892019372
C            7.13233213333826       -6.68524622983292       -5.76655099743629
C            6.54706561833736       -5.81352923199447       -4.88231104058873
C            3.38607137831277       -2.19916149833902       -2.80677601425091
C            2.72055925058494       -1.24648337536077       -2.07759497760708
H            0.71180645577114        1.19590044601604        0.31478709924558
H            0.52603157986234       -0.16896524903039       -0.77815568915679
H            1.32966197500545        1.31332200402001       -1.33620572881230
H            2.49517335289167        1.54315069779532        1.48740526222315
H            4.07583766574579        0.90629206180814        1.05358240096055
H            2.93912531451379       -0.09521195233068        1.98022325896303
H            4.65031846075490       -1.25632865066274        0.68948878463148
H            5.83103656850655       -2.95256386317006       -0.62607061686842
H            4.68976390162836       -3.05888477245820       -4.87244725552567
H            5.05617331425526       -3.73641115217416       -7.07597571429114
H            6.11412445575883       -5.30643343136163       -8.65645924971497
H            7.71852916627829       -7.51771103417791       -5.41582486508996
H            6.66736943749828       -5.94720215917901       -3.82262855839888
H            3.01024001753679       -2.49043730377518       -3.77134041495220
H            1.85057387023652       -0.77218267059300       -2.49492747296131
