34
 energy: -6.618711323949 gnorm: 0.000206859806 xtb: 6.5.0 (97a52f5)
C            1.27305158650898        0.30665266947345       -0.60646013216196
N            2.61885765902158        0.06482547824657       -0.08667200591302
C            3.22264195133106        1.14284293218719        0.69620475994266
C            3.29355048152959       -1.14692635111774       -0.31838717013370
C            4.49510356140487       -1.44170436037640        0.33498774951567
C            5.15202417705957       -2.62399237817738        0.10473084053872
C            4.64746450872111       -3.56001444950914       -0.79202913056237
C            5.38035328950854       -4.82590700169789       -1.01611089439926
O            6.08149736980572       -5.28290896337932       -0.12751532056924
N            5.25058729656745       -5.43691960860577       -2.26416588772246
C            5.85634621492893       -6.63628090996453       -2.67823499006952
C            5.68524792233305       -7.09472110970413       -3.98385972951111
C            6.27196151979459       -8.26957815930382       -4.39948461655380
C            7.04064386892795       -9.01217291283153       -3.51946390323476
C            7.21921564986887       -8.57164588215718       -2.22526432847061
Br           8.26118141173698       -9.55884284382741       -0.99970926816840
C            6.63613346071942       -7.39975203769239       -1.81047475104645
C            3.44575706244148       -3.27923326955231       -1.43871587694580
C            2.78356426011401       -2.09979866887747       -1.20723313959798
H            0.83342932011867        1.19148173899706       -0.15089707760884
H            0.62803214149659       -0.54061762357566       -0.38236343310672
H            1.31036287267941        0.45392474354569       -1.68398901159209
H            2.66576802705973        2.06964808198708        0.57560193583443
H            4.24323207019317        1.32051367065591        0.36338834132994
H            3.23084382148001        0.87782784897677        1.75149561138013
H            4.90119304818320       -0.73639333393123        1.03760526746412
H            6.07199691675881       -2.84699125702718        0.61744309402804
H            4.71922260021233       -4.94146197781756       -2.96966223287144
H            5.08760919679106       -6.51685356731043       -4.66668680347328
H            6.13326216826715       -8.61225304734489       -5.41158856161273
H            7.50466861958307       -9.93320790523458       -3.83181438287748
H            6.78667390506127       -7.06290051061047       -0.80105768991217
H            3.02346319874359       -4.00746197007897       -2.10818686085086
H            1.86163884104794       -1.89907706436444       -1.72287040106803
