34
 energy: -6.620345256256 gnorm: 0.000382655891 xtb: 6.5.0 (97a52f5)
C            1.25886620020945       -0.29728724775499       -0.47387947482819
N            2.64280881368969       -0.06755822632719       -0.05947596121340
C            3.21471843028719        1.24062984010453       -0.37806143821643
C            3.38787537016969       -1.05734630452171        0.60562263042147
C            4.64532894591801       -0.77248687882278        1.14925306193163
C            5.36911899432034       -1.74037002333811        1.79881897182568
C            4.87806353240539       -3.03550579196748        1.92631109549241
C            5.68187567964663       -4.05678024908937        2.63345049037252
O            6.45697365464583       -3.71515527930627        3.51203149155060
N            5.52790566562672       -5.38695106676166        2.24073814350222
C            6.17719033820223       -6.50467639773466        2.79360998062900
C            5.97664152739199       -7.77152877265560        2.24927096475519
C            6.60083982434709       -8.87268905598730        2.79016778984501
C            7.43340941990548       -8.73185965989714        3.88427423450244
C            7.64847539616627       -7.48470319341697        4.44359900048846
Cl           8.69727074295289       -7.28354795511816        5.83705036878692
C            7.02250845897773       -6.38781165063606        3.89286722576180
C            3.62230308794098       -3.32495279311732        1.39719655630661
C            2.89364773990434       -2.35835354497196        0.75103304766506
H            0.78746696203771        0.63150793557069       -0.78815285361805
H            0.68232366066663       -0.70110431653086        0.35602557812722
H            1.23075883459647       -0.99886351102770       -1.30521166673158
H            2.57940956504635        1.78478963815899       -1.07364021430177
H            4.19130915467575        1.11814313228316       -0.84214308542424
H            3.31991540749474        1.83160960797173        0.52955402250414
H            5.04300014054290        0.22308398628424        1.06718420525071
H            6.33192539009959       -1.51145570862477        2.22267326186598
H            4.93038363489377       -5.56879057641650        1.44347847422199
H            5.32721823435042       -7.87935763180832        1.39834358453129
H            6.43998357760247       -9.84761998595876        2.36012428362272
H            7.92398727265660       -9.58812486521513        4.31488578830843
H            7.19365956409962       -5.41827946646525        4.32150042357543
H            3.21324153677306       -4.31225191862352        1.51898286879215
H            1.92992524175605       -2.60478206827712        0.34284714969672
