34
 energy: -3.769540822641 gnorm: 0.000814527846 xtb: 6.5.0 (97a52f5)
C            1.55712894682177        0.28055159700702        0.52663171029285
N            2.77478194573657       -0.40503465880503        0.21451126049013
C            3.18698279962948       -1.44001135808026        1.11435231061484
C            3.45154738098171       -0.13027684517315       -0.93076052756037
C            4.56161315822738       -0.71624353409047       -1.36001789632015
C            5.21418534260768       -0.44826147558805       -2.46841866992627
C            4.90027478326785        0.45769272190589       -3.37818908725900
C            5.59702661624596        0.67488858354671       -4.61146977341998
O            6.54376550888367       -0.03041942459871       -4.92822089158867
N            5.14887362358666        1.68795478830869       -5.39814383629535
C            5.71189384864235        1.94755841397826       -6.56658713759446
C            5.41636257752752        2.95537618146826       -7.37295693820579
C            5.91582196711866        3.25274028777105       -8.55693558717606
C            6.77261181676400        2.62186360686520       -9.34566673776243
C            7.30354240672433        1.41337104825705       -9.27521204474981
C            7.08346931476478        0.22532114003803       -8.62433690114180
C            2.77424420515820        4.13807130849442        3.89812610769192
C            1.28518413371931        2.68940897259993       -2.64397770862819
H           -3.83293992435298       -0.50503359301073        4.05494331997380
H            0.76804480251758       -0.03817717137763       -0.12128283067859
H            1.68761497107912        1.33911044904173        0.44704510703153
H            0.45820015645131       -0.61070643961110        4.87226969930440
H            4.17486238945869       -1.25446369849610        1.47994873452124
H            3.14878941241342       -2.39545173540720        0.63504668568741
H            8.54574466458207       -3.34148706610874       -4.21324713699591
H            8.29976447689766        0.19729033136146       -6.18886275885710
H            2.38079618215649        6.01634119860919       -5.78982001947152
H            6.00886429599200        9.71981509133690       -6.38930088570415
H            6.72934045863919       10.83898960640617      -11.34912079693719
H           10.39159097437108        4.11396591057808      -15.98201485000141
H            9.42649996285242       -5.19497422019765      -11.41345245207685
H            5.81721845838321       -1.19278683158281       -6.67423467617729
H            0.62833020075962        2.79571698460805       -3.42054889371444
H           -0.75217189021815        4.74891985815727        1.00765407643519
