24
 energy: -4.963373907007 gnorm: 0.000755164129 xtb: 6.5.0 (97a52f5)
C            3.54595111948573       -0.32497269704657       -0.00048013351525
C            2.91852760340316        0.86725002634841        0.00085409460656
B            1.41804239645742        0.85420743948935        0.00142627349226
C            0.63621339278941        2.15950290528741        0.00261496382602
C           -0.69474115094778        2.09254641561274        0.00266798703483
C           -1.40319865681077        0.84646591495430        0.00179998771096
C           -2.80685451109033        0.84822590435571        0.00187228231157
C           -3.51542109786480       -0.32250485322481        0.00120893107414
C           -2.84356167135723       -1.53622324745512        0.00046230085677
C           -1.47330870681237       -1.56604701194135        0.00033405634164
C           -0.71851123201924       -0.38668974385933        0.00092793287254
N            0.69367086007643       -0.41652065781331        0.00052716263386
C            1.46313595833583       -1.54663068674740       -0.00085788151162
C            2.82340240896246       -1.52079641156731       -0.00134360371642
H            4.62364588486943       -0.35969010258145       -0.00093310109939
H            3.43825593933794        1.80562908019216        0.00150522976479
H            1.17833567480898        3.08520106674571        0.00328990908228
H           -1.27302984379446        3.00096396649149        0.00342266807177
H           -3.32585412588057        1.79152924650933        0.00247990752043
H           -4.59307498151178       -0.30359742735215        0.00127966433525
H           -3.40298189860159       -2.45763688176688       -0.00001126041851
H           -0.97427909126443       -2.51721293258195       -0.00020123924012
H            0.96541454536696       -2.49809524070070       -0.00163911776028
H            3.36580118406158       -2.45270407134827       -0.00245701427409
