49
 energy: -9.920713410648 gnorm: 0.000616271626 xtb: 6.5.0 (97a52f5)
C            1.49301401186590        0.43188168629465        0.42432850523205
N            2.94791146766639        0.28013958101328        0.46379757734262
C            3.73925835340462        1.36067506189357       -0.12561868422315
C            3.55452311646263       -0.85405577428342        1.02676193030800
C            4.94203387992598       -1.03448740330278        0.97303202719983
C            5.53145336462574       -2.14856512085287        1.51088163067359
C            4.76517529483910       -3.14582149474853        2.11387597927358
C            5.43052626591230       -4.31133935694669        2.71452116241089
C            4.92980237086733       -5.61333743600122        2.65531644310647
C            3.83955237206424       -6.10634766891368        1.81993768333419
C            3.25575229331266       -7.34293666725197        2.12262532706955
C            2.23793688080649       -7.85831826003434        1.35121537772569
C            1.79354382543609       -7.16672913070929        0.24256242666572
C            2.38272659143257       -5.96624254354966       -0.10031441745842
C            3.39728323290620       -5.44632178717428        0.66943464628208
C            5.57128161002222       -6.56022105814184        3.48465691178134
S            5.11450661367703       -8.16402566518113        3.76387446761541
C            6.34445392811443       -8.63935950901380        4.83081706963332
C            6.65211772600966       -9.82013533063432        5.48810641538436
C            7.76080047192604       -9.84617879759306        6.29203224564734
C            8.56545185578427       -8.70829370722291        6.44797977491939
C            8.26816492690376       -7.53796591662056        5.80337154925073
C            7.13664808501111       -7.48303865149512        4.97287788054901
N            6.67031142138230       -6.39176721780984        4.22194869161287
B            7.40282998508019       -5.03630532394167        4.16030594730602
F            7.59644825579626       -4.60348287014908        5.45910155905756
F            8.61196089333969       -5.24608401433539        3.52359429747326
O            6.58740701654112       -4.05618997206161        3.40198741409409
C            3.38324977584941       -2.95354531456760        2.20214499624748
C            2.79247135049024       -1.84027342231162        1.66496787320073
H            1.20571121037624        1.29354834234918       -0.17384948714693
H            1.10677779457849        0.56803663369610        1.43222623467567
H            1.03836127034436       -0.45131225593369       -0.01932630585798
H            3.10690751744272        2.19853923580368       -0.41037924857074
H            4.25459971686371        1.00141210694250       -1.01399195065083
H            4.47094508556606        1.72095297779313        0.59447728326437
H            5.55404383475655       -0.28840640214062        0.49897650888651
H            6.60029234972235       -2.27313789028067        1.47550078792365
H            3.65008834314687       -7.92503510737535        2.98296846302003
H            1.79673840128644       -8.80748624180579        1.60736769747810
H            0.99862748165052       -7.57060059733352       -0.36278296671759
H            2.04902706346396       -5.43658207376746       -0.97768905875014
H            3.87482253264846       -4.53102834217006        0.37009663238814
H            6.02454905843841      -10.68311923770511        5.35374205787592
H            8.02071053589830      -10.75377713337317        6.81155164949001
H            9.43162809006386       -8.75789704362839        7.08694907725784
H            8.87455728288694       -6.65722521354871        5.91879555159435
H            2.78621220858171       -3.69219501732778        2.70869290768527
H            1.72759298483015       -1.71555365454562        1.74487945744145
