76
 energy: -15.364135654379 gnorm: 0.000606576856 xtb: 6.5.0 (97a52f5)
C            0.42263181028185       -4.87625686405192        4.78850212954346
N            1.76867263358032       -4.31088559461422        4.67941796096168
C            1.97932114861712       -3.00800398015044        5.31443194229645
C            2.74379827334529       -4.89796201415090        3.87836094748587
C            3.98690593234895       -4.27456192321768        3.67480500515593
C            4.90393959371022       -4.79088598518963        2.80002926260384
C            4.63795076368362       -5.96414458575991        2.07993522804631
C            5.51394986872621       -6.40529717632301        1.00806842146681
C            6.57976005893054       -5.68577487616577        0.47627999365018
C            6.99952779640410       -6.28790437124881       -0.72070911095195
C            8.08001070799181       -5.80543188833128       -1.57898381838220
C            8.55556549714228       -6.56822891736413       -2.64242383798065
C            9.58937011935198       -6.12662952830519       -3.43531748372759
C           10.17928248045778       -4.90541152489203       -3.18227649063307
C            9.72662101344035       -4.13024164321172       -2.13389756962672
C            8.69067427492750       -4.57258907751684       -1.34155627629110
N            6.18466664685373       -7.36959209378095       -0.90214780354379
C            5.29643957299635       -7.53064166867119        0.13426611061196
N            4.45332395281823       -8.54479826841192        0.34741533782098
C            4.30813984514724       -9.32790017094902       -0.72335039330075
C            3.53787307473667      -10.54474752835104       -0.80143566340645
C            3.06701704635723      -11.34147794166507        0.31776700651757
C            2.37321703786595      -12.54261988118386        0.11552105409428
C            2.07451367342270      -13.37187433850387        1.16241260996625
C            2.45960428239940      -13.05372833318232        2.47613391953409
N            2.24267097100910      -13.94376636103226        3.52396346974460
C            1.61745892451542      -15.25019552111751        3.30591220703161
C            2.76037577112895      -13.68783859938151        4.86930269124635
C            3.11188535340961      -11.82566060931158        2.68266485758666
C            3.40313083011852      -10.99832958178488        1.63293513809194
C            3.51395528888386      -10.91832123643681       -2.14196681160761
C            4.27287538665979      -10.00528202447520       -2.89129746631729
C            4.48180797303845      -10.06299401320421       -4.34002706318698
C            4.55527319447310       -8.89920361516767       -5.10300277133098
C            4.69181657131330       -8.95549112431998       -6.47127335498232
C            4.75321158621549      -10.17768878588005       -7.10970655805123
C            4.67713965449335      -11.34297279470831       -6.37300949651493
C            4.53947054524107      -11.28872613216157       -5.00399337170050
N            4.75821992566576       -9.09046462437133       -2.00004328315861
B            6.00702979416901       -8.21024378831648       -2.17432041936660
F            5.84781030567280       -7.34253271640382       -3.24080518205928
F            7.08903553761724       -9.06409068500109       -2.33871991289979
C            3.42487906569632       -6.61814011384440        2.32844175150857
C            2.50344035923533       -6.10551603124330        3.19981304394464
H           -0.21724759898448       -4.25417883097412        5.41075989960546
H            0.46866094126020       -5.86814360196348        5.23345745743187
H           -0.03116496367552       -4.94776762541850        3.80170072074004
H            1.11273681037384       -2.70939658452069        5.90044193754677
H            2.15435793882860       -2.24816424298227        4.55489032255992
H            2.83849490014327       -3.05105705168822        5.98080930587246
H            4.20852979009781       -3.36034759282495        4.19555173720251
H            5.83457980221919       -4.27572593028612        2.64072800675310
H            6.97711985888130       -4.77413830657393        0.88403739704738
H            8.10174115949310       -7.52090105688862       -2.83457524544956
H            9.94048014946519       -6.73638651085659       -4.25173445389808
H           10.99142753903524       -4.55887652051493       -3.80016386924683
H           10.18698382651187       -3.17650527383711       -1.93371888240584
H            8.34511683771912       -3.95848456561506       -0.52923090924400
H            2.09062224886488      -12.82428247026367       -0.88333818099792
H            1.55823500486618      -14.29616616307778        0.97479770484068
H            2.22431900608980      -15.84445699527899        2.62518284200463
H            0.62416551219494      -15.12303632943719        2.88006816387681
H            1.51596493269053      -15.80007939346627        4.23913197665194
H            2.29910494887341      -12.79368204137540        5.28360095024551
H            3.83929800195866      -13.54903446981504        4.83194894688001
H            2.54986509594885      -14.52000804500726        5.53774814209515
H            3.40308191064421      -11.54430204856913        3.67869867797177
H            3.93154106420621      -10.07863142558237        1.80211026650573
H            3.03265931967213      -11.79160681910577       -2.54450874079161
H            4.48688696347672       -7.94805007210379       -4.60666600257928
H            4.74600097927293       -8.04433365500112       -7.04447097917851
H            4.85687869823055      -10.22178739548625       -8.18148546028303
H            4.72106328081808      -12.29735866766715       -6.87164377016380
H            4.47902593686931      -12.19777785383200       -4.43119732811147
H            3.20896831972314       -7.51930764902725        1.78538308036828
H            1.57026764006995       -6.61807627745529        3.34978033618699
