61
 energy: -8.462794890074 gnorm: 0.002942744623 xtb: 6.5.0 (97a52f5)
C            2.05802313704590       -3.28349081695147       -0.52741171268097
N            3.35951596063397       -2.73922314418104       -0.14529498589163
C            3.41135756416918       -1.32358469532839        0.06893791878657
C            4.53816297366236       -3.50025921264046       -0.20166177078565
C            5.74346490408102       -2.87435306526914        0.01842687316430
C            6.98685150714681       -3.27905004617766       -0.14884817841335
C            7.49814620064307       -4.26302075307272       -0.89142334869861
C            6.98068513808856       -4.86759924002985       -2.06651010729371
C            6.15109976280851       -4.22891783737244       -2.90618630655901
C            5.75510890198213       -5.08492289536781       -3.92686188125465
C            4.98661207899695       -4.74033142583404       -5.00866356499808
C            4.65995637579946       -5.72424893965468       -5.96979886497346
C            4.24251149112128       -5.64457940910359       -7.23269599537119
C            4.31043106813951       -4.66636585441823       -8.11049404844479
C            4.92546473952439       -3.49566973219657       -8.00923667751612
N            4.96823096544099       -2.50265930711995       -8.94081598844095
O            4.52816352590631       -2.38774549027043       -9.98345452802642
O           12.21731634873895        3.18794559814860       -6.51788272092552
C           12.02584624774865        3.18791063510741       -5.28459560558009
C            4.50774250049910       -3.44105556591429       -5.13210564877745
C            5.68429768622868       -8.68796907864541       -4.35123267586226
C            4.86876759549313       -9.76001949022746       -4.31653717061521
C            3.76078173631449       -9.73306541338212       -3.49103988457941
C            3.53005139257213       -8.63607572862029       -2.74105486941235
C            4.34190564835152       -7.59724818912301       -2.78781220360502
C            5.43525105679780       -7.58654792693005       -3.59219381601821
C            6.36122881837106       -6.41125099767023       -3.62046771623443
C            7.32198331896043       -6.28229449934410       -2.47577750196723
S            5.71120410595518       -1.06809736295180        5.13996398098950
C            9.12716074506896       -8.88994300301048       -3.98857262172912
C           10.40794932907596       -8.88760769787381       -4.37872975766002
C           11.03711266079628       -9.94054802261596       -4.94572338649371
C           10.58569772094628      -11.14889429989831       -5.23474940709554
C            9.41600997904462      -11.63537932924529       -5.04253652251500
C            8.55230505032225       -6.45639763099214       -9.94153662357145
C            4.48400613818124       -4.83561533447808       -0.43880771168816
C            2.06907431992548       -3.57786340135136       -1.83948458353297
H            1.26952838904592       -2.55610865193275       -0.33968156051600
H            1.83615070805960       -4.18126717636370        0.04676217422657
H            0.07946786936754        0.28258494830265       -7.80850272578218
H            2.79252517706732       -1.03753609050120        0.89358709945076
H            3.12047421510483       -0.78969892014379       -0.81179037894367
H            4.96949509489266        2.26519325220660        2.10330551745239
H            9.94963665317557        2.09136834483105        3.56372591420152
H            9.72468738654914       -2.98807286636001        3.53198279973889
H            5.08036872739561       -1.59009319456637       -2.57304706607382
H           -0.00498024606735      -11.63774115245428       -5.93183969178109
H            0.27126399674370       -7.92072430654673       -8.85809991007986
H           12.78718132734355        2.53059963923824       -7.01641125518529
H            8.18850988100072       -5.15804067490123       -5.59924282638310
H            6.39400370486283       -9.75382647149294       -7.73473176929976
H            5.08684654323895      -10.62106645739777       -4.92606349593047
H            3.08808487278036      -10.57318104949788       -3.43527297467411
H            0.09044901365745      -12.55635318087555        4.13410707349373
H            5.92806728544851       -5.59551053302180        3.71770498644549
H            8.64451902288592       -8.06569496291954       -3.54963277387962
H           10.98702616050661       -7.98846062870947       -4.23641036856937
H           14.78155394924701      -15.09839271004364      -12.08878398743291
H            5.03684398560407       -8.80942592338943      -11.82855747701873
H            2.50439395174752       -5.74483348345755       -4.04115668049246
H            3.59957343202018       -5.36702912470424       -0.62170097184829
