35
 energy: -6.618419168227 gnorm: 0.000789866823 xtb: 6.5.0 (97a52f5)
C            1.28808025859209        0.77974904603191       -0.58026566993016
N            2.38734473002185        0.02561487640270        0.02306227201975
C            2.62185489850776        0.24660876147030        1.45030146794519
C            3.17715911602049       -0.86262225909343       -0.72915655192472
C            4.08873877985161       -1.72309860181944       -0.10928261778940
C            4.85727540320233       -2.58587835926671       -0.84787551738971
C            4.76108971168671       -2.63274754170251       -2.23656881265539
C            5.61220782196616       -3.57506957661175       -2.96763751623879
C            5.71530490278944       -3.57099641606185       -4.32720590770206
C            6.57924875076264       -4.47658450402108       -4.99734610694831
C            6.80089652102606       -4.43664929414170       -6.36530618364715
C            7.66968750908886       -5.34249462729191       -6.92777456174026
Cl           7.91625574483050       -5.24969658046052       -8.64352362406716
N            8.32149363465962       -6.27613004130809       -6.22620310813083
C            8.07221474370310       -6.27817323337543       -4.93499718140939
N            7.24860442478578       -5.43193302846149       -4.30829279712859
B            7.00153000596089       -5.64265319517192       -2.80931904963896
F            8.22211120821490       -5.85593701404972       -2.20108086632943
F            6.18730469024688       -6.75022185425075       -2.67881521194018
O            6.33348554565543       -4.46823746640565       -2.22094138575336
C            3.84703939351164       -1.78028223739239       -2.85939626447378
C            3.07566608722505       -0.91734095348488       -2.12310916854184
H            0.64149540706509        1.19956412223584        0.18721530904525
H            0.68309322714262        0.12474417139381       -1.20374004070812
H            1.68482668886878        1.59192750524528       -1.18604621239195
H            2.12120053987735        1.15155104365196        1.78761654425817
H            3.68651866328688        0.36444682964340        1.64036759592246
H            2.24269680412007       -0.59711970002738        2.02333702970492
H            4.17563178381897       -1.71946990988120        0.96233574852066
H            5.55381688317204       -3.24891034065128       -0.36312593298776
H            5.18096943409034       -2.84826404811426       -4.91263769140242
H            6.31011288309781       -3.70564167952806       -6.98321087008340
H            8.56786502761883       -7.02172211731989       -4.33146548250519
H            3.73471596026056       -1.80488583340682       -3.92821307356409
H            2.38954281527032       -0.26051594277799       -2.62708856039321
