42
 energy: -8.244723364257 gnorm: 0.000533509358 xtb: 6.5.0 (97a52f5)
C            1.51583608788669        0.02738214728812        0.30646594114987
N            2.91341328552988       -0.09910851314598       -0.10886691217618
C            3.92881893108367        0.17371303560629        0.90855384025720
C            3.26318025530565       -0.46742187337708       -1.41839117859015
C            4.59508613855498       -0.44412660077024       -1.84618866546871
C            4.93069941248085       -0.80519548473049       -3.12574773788563
C            3.96211971774449       -1.21449963297267       -4.03978940512299
C            4.38186665827475       -1.59108179001823       -5.39240113859844
C            3.54574978536362       -2.21531489096727       -6.26886626178401
C            3.96429790780283       -2.57827300970318       -7.57431892346203
C            3.07286804008189       -3.24328091377724       -8.44294898804682
C            3.45974507774682       -3.59856852153701       -9.69322269608644
C            4.76357685788246       -3.30241809666847      -10.14659166469096
C            5.20757499735923       -3.64828590546507      -11.43805209114432
C            6.47341278407595       -3.34035844581645      -11.84299065976924
C            7.34724288904376       -2.67682900563152      -10.97847577707186
C            6.94330809024639       -2.33261185690655       -9.72272398060832
C            5.64756233780723       -2.63380293316097       -9.26954808847950
N            5.21426829027975       -2.29763264238098       -8.00259863632192
B            6.23326025428923       -1.59517761652145       -7.08258258985970
F            7.32159057180665       -2.43827364420092       -6.93717690537891
F            6.60609266981313       -0.40943676780550       -7.69164393874646
O            5.66676916888349       -1.30044150050714       -5.75148273119090
C            2.63041094591106       -1.23320765544448       -3.61915448368853
C            2.29064648332707       -0.86820288571662       -2.34136588457714
H            1.44183507881138        0.48064103046691        1.29234605842438
H            1.04740406196348       -0.95404975882809        0.34151065729983
H            0.97464952933896        0.65951775170143       -0.39442173880307
H            3.47873721734019        0.25847940484721        1.89511863217082
H            4.44252043398526        1.10542595653104        0.68106708407682
H            4.65258007616981       -0.63801189214322        0.93944885198659
H            5.36402020931896       -0.12747442567483       -1.16470982481145
H            5.95770431160007       -0.77881794036474       -3.44766139373027
H            2.54641703111016       -2.46675703944932       -5.97058369399838
H            2.07812781113729       -3.46797083990316       -8.09862776649612
H            2.77833963539017       -4.10756483385719      -10.35263180072648
H            4.53290150223689       -4.15935621635049      -12.10298091565453
H            6.80290710036647       -3.60853806360250      -12.83323843868231
H            8.34448447249618       -2.43604313929382      -11.30861760710314
H            7.61195262776074       -1.82018303295074       -9.05440136940290
H            1.85662690652721       -1.52218894331996       -4.30722668458577
H            1.25923435586447       -0.89766301347624       -2.03916049262204
