38
 energy: -7.177514364161 gnorm: 0.000802457949 xtb: 6.5.0 (97a52f5)
C            1.44747794701269       -0.12257103775133        0.42386665221866
N            2.73807848058191        0.21495629459218       -0.18120091652844
C            3.43412710455158       -0.86948349476942       -0.87816013258237
C            3.27737730705521        1.51238844283064       -0.10324535212497
C            4.38536475155935        1.88166916225343       -0.87606187856939
C            4.90935465587301        3.14583083987886       -0.80037619335759
C            4.35396149032427        4.09817912547329        0.05131001374463
C            4.92327776676457        5.43562897137543        0.12169942349057
N            4.39718800089206        6.29708259012719        0.94794879633741
C            4.99151919074680        7.50568146696166        0.95144072978768
S            4.48802714524113        8.82124946163623        2.01954956347921
C            5.70601851640812        9.89458497803055        1.37704864142321
C            5.96802976648533       11.21135376905763        1.73270988450053
F            5.25097821869982       11.83350415622341        2.68608446290499
C            6.98962231279571       11.88177643173626        1.08449765691875
F            7.26475674356860       13.15403003501459        1.40995016525473
C            7.73923212679375       11.24488608842541        0.09000371047533
F            8.72593639180681       11.91724299422300       -0.52370557609617
C            7.47970332494038        9.93640333117729       -0.26862096633762
F            8.20719892718425        9.37111594366868       -1.24529785663400
C            6.44730612583679        9.24704608994099        0.39099264807177
N            6.00550441591965        7.93077858326278        0.20875977828278
B            6.64406772567542        6.97640587433579       -0.79763854594924
F            6.46317844930620        7.48928912789236       -2.06229490690834
F            7.97773673450858        6.83667387586387       -0.48629967123773
O            5.97957482642991        5.68433706214025       -0.69252658083477
C            3.25144044575970        3.73891453646465        0.82548798814124
C            2.72433011342057        2.47593849919093        0.74953770791079
H            1.07315878747796       -1.06616900526546        0.03214098690803
H            0.71467763684017        0.64770740687762        0.19095881696617
H            1.55714178960972       -0.21141548373425        1.50320938647281
H            3.01028025481478       -1.83501329595030       -0.61009376097373
H            4.48504024973249       -0.87832792500517       -0.59603545311567
H            3.34385889234512       -0.73544295407898       -1.95443734989370
H            4.82212301654718        1.16909928665323       -1.55331795674777
H            5.76012717175306        3.42798323653778       -1.39920361056502
H            2.82252704249153        4.47310429502763        1.48664330174298
H            1.88400615224572        2.21670123968043        1.36916639342355
