41
 energy: -7.778659549690 gnorm: 0.000649910534 xtb: 6.5.0 (97a52f5)
C            1.46677891688387       -0.32341334955386       -0.22469266077506
N            2.75329905820182        0.28936167059841        0.11149779669093
C            3.48463029439103        0.91377456458844       -0.99248534888878
C            3.26492049555797        0.26824944151524        1.42131183540487
C            4.38908752424010        1.02664764331028        1.77124390542028
C            4.88563529197353        1.00555335064596        3.04856101258248
C            4.28459888966921        0.22602857012446        4.03462062411969
C            4.81973474527096        0.21041797491282        5.38891587526007
N            4.22990869248625       -0.54520858270909        6.27741560097998
C            4.79751831816380       -0.51971916443672        7.49848022428830
S            4.25602770590676       -1.49003880469415        8.87878590497247
C            5.50275913126207       -0.83076341239198        9.92286937722897
C            5.78742912476350       -1.09252457280878       11.25200559067806
C            6.83352824662586       -0.43600205153205       11.85967114679293
C            7.15156153518864       -0.73423966805234       13.31751160967234
F            6.01828633380459       -0.63684900435258       14.03285065944623
F            7.64284537758027       -1.98198240638906       13.39996262836374
F            8.05844990912236        0.15090346317309       13.76419725279164
C            7.60357402998858        0.48024025631952       11.14369511628846
C            7.33488288747276        0.74898231263244        9.82619252810096
C            6.27329984511250        0.08753187381792        9.20835206835275
N            5.83225490654451        0.20968976269864        7.88790381475067
B            6.49058336377393        1.19609015506710        6.93331779812575
F            6.23094352067873        2.46871116007903        7.39195235290839
F            7.84551363437005        0.95126448442889        6.92289705646740
O            5.90903895483682        0.99480735499084        5.61170784053703
C            3.16541389734670       -0.53242124381900        3.69419903895558
C            2.66629638000670       -0.51201597376537        2.41824279529354
H            1.11619734562153        0.02440961085703       -1.19401253706493
H            0.71853081685016       -0.05050675327666        0.51662420409964
H            1.57032194551389       -1.40621629675393       -0.25821172431426
H            3.07563292871004        0.60132263906749       -1.95098930970242
H            4.53030990807378        0.61440828033308       -0.96309812787954
H            3.41226681812411        1.99706743737007       -0.91857037352490
H            4.86031875683080        1.64856924513975        1.03098193010638
H            5.74896170672520        1.59300020843513        3.31429827888602
H            5.19686675418792       -1.79961063110673       11.80848912973466
H            8.41690881013772        0.97479033940105       11.64933787218469
H            7.92420482396904        1.44723570604211        9.25658768206324
H            2.70096894809606       -1.13697670089443        4.45459294445325
H            1.81123942593661       -1.11765888901212        2.17589658614928
