38
 energy: -7.276002841424 gnorm: 0.000599453896 xtb: 6.5.0 (97a52f5)
C            1.49840011705419        0.50292188262001       -0.03116748744109
N            2.75986439726766       -0.22091451906915       -0.18883052391528
C            3.44861480165271       -0.61646237749424        1.03986943495553
C            3.29130468751317       -0.51123430917675       -1.45805494296879
C            4.41323134353443       -1.33663982738230       -1.59916290159793
C            4.93142440481479       -1.61816849019602       -2.83622602991957
C            4.35650146832196       -1.08730309999422       -3.98924580477718
C            4.91747901364757       -1.39315751976816       -5.29891513930496
N            4.37347658340040       -0.83995743444735       -6.35035880126032
C            4.96273974100153       -1.16564627467210       -7.51924641599853
S            4.49203048023914       -0.50248320866162       -9.09751399853369
C            5.71295206969206       -1.44633556540180       -9.93503625236198
C            6.01540292921815       -1.51139013566157      -11.28156451675560
C            7.04010624534288       -2.34918735754572      -11.72994393198349
F            7.36460977742680       -2.42502995253374      -13.10310661538020
C            7.74892085747922       -3.11906387122333      -10.77750915544379
C            7.45341741291898       -3.05645486582997       -9.44272019211105
C            6.42720378330152       -2.21416834832388       -9.01308658812879
N            5.96601209170795       -2.01018228695127       -7.70728819394469
B            6.57466620706402       -2.77145058439557       -6.53458730948465
F            6.26898271038088       -4.10642694003511       -6.68508607061318
F            7.93866165355668       -2.57767661442587       -6.54757609239970
O            5.98522764561939       -2.24301349343293       -5.30680339872876
C            3.23909789709694       -0.26368602393014       -3.85659211765737
C            2.71723353531694        0.01695183021594       -2.62076877836223
H            1.14824045149050        0.45297724744463        0.99730114732437
H            0.73392346190215        0.06180733844274       -0.66706717580462
H            1.63390484957240        1.54807907410149       -0.30080262233516
H            3.00321312880905       -0.13470168165661        1.90722681352596
H            4.49439746099776       -0.32063644726406        0.99219964916431
H            3.38409693241666       -1.69442470263752        1.17119856357727
H            4.86805019080803       -1.76551905984244       -0.72445504784812
H            5.79287260984096       -2.25581183253541       -2.93841044902788
H            5.46179353420729       -0.91740557975735      -11.98513952872373
H            8.53723860653683       -3.76341191425350      -11.12583149204769
H            7.99389217092029       -3.63614250801552       -8.71540450727510
H            2.79333205218009        0.14875208834134       -4.74478557791669
H            1.86108269574770        0.66248736534852       -2.54188794849444
