43
 energy: -8.669971572955 gnorm: 0.000559776313 xtb: 6.5.0 (97a52f5)
C            1.28174579353751       -0.75396411856539        0.58383475419189
N            2.34890701765477        0.04230778012745       -0.02216450335001
C            2.52686305998559       -0.09595354414879       -1.46811686988440
C            3.17949786472625        0.87580842698255        0.74810478857394
C            4.06565391218324        1.77234045477695        0.13892701703585
C            4.88447209196811        2.57524228745216        0.88924081768714
C            4.85716744017276        2.51881178189579        2.28163193344940
C            5.74318285281514        3.35233340327951        3.08517224777366
N            6.54823905233670        4.17499985827245        2.47368154881946
C            7.32102275620852        4.91934995716526        3.29941128759273
S            8.32247456352697        6.25514629883174        2.75007508016727
C            8.89869089391752        6.56609345159071        4.34708474426426
C            8.36228943983407        5.69799702627565        5.24726848617350
C            8.69836890920152        5.70828576475386        6.68305496537356
C            8.96537342174258        6.90572947194184        7.34352768136435
C            9.32185518184865        6.91534025608884        8.67154320730847
C            9.42619032305732        5.72867684883041        9.38787209234039
C            9.79272420176443        5.73791414663494       10.74180619563943
N           10.09712500766925        5.74403562845581       11.86238281167632
C            9.15765554244581        4.53197981864412        8.73481115321964
C            8.80172880582989        4.52523033559628        7.40798485349816
N            7.48291064829536        4.80477250390761        4.61317808164586
B            6.73641878390544        3.66019728015883        5.30877941917113
F            7.63055268138614        2.62852677430940        5.50473401851530
F            6.22594738098706        4.11806938341193        6.50395478406872
O            5.65277024053819        3.20951265702418        4.43711887713584
C            3.97378611245887        1.63366035083804        2.89534427033457
C            3.15186701643231        0.83128194068443        2.14724481992199
H            0.60295953777266       -1.13241787092988       -0.17719922609667
H            0.70382645029111       -0.14078314554112        1.27199477025618
H            1.70830884606853       -1.59827263006437        1.12125558216290
H            1.99296119148653       -0.96689130409941       -1.84168555916133
H            3.58118666245658       -0.22466348833873       -1.70361752788019
H            2.14815175265886        0.78915104005664       -1.97484096557844
H            4.09422501470497        1.84150745601289       -0.93374986307997
H            5.56389108710425        3.26112396312267        0.41383438205765
H            9.60543107230221        7.33766968052633        4.58081043511790
H            8.88094335595163        7.83320389301673        6.80394954894351
H            9.52613265585572        7.84619031989206        9.17321250795683
H            9.22872247715897        3.60843777736520        9.28426279088380
H            8.57320912449214        3.59789759922980        6.91486540898666
H            3.95566626376316        1.58905545975118        3.97115401376583
H            2.48906351150368        0.14407502478229        2.64188513795854
