42
 energy: -8.163968332181 gnorm: 0.000470150648 xtb: 6.5.0 (97a52f5)
C            1.56508766707550       -0.22675337086545        1.25038824994422
N            2.45993337466146        0.00892327341889        0.11743845848960
C            2.53127116566221       -1.04735161136273       -0.89229235134579
C            3.21443409837854        1.19084626609728        0.00542563124957
C            3.89576137304405        1.50330409133394       -1.17703745961933
C            4.62825452971494        2.65673501887678       -1.28583972660162
C            4.71680580591222        3.54927755229972       -0.21855535784556
C            5.49366671027865        4.77897168454342       -0.32722930414488
N            6.08328377820460        5.04590425189376       -1.45877336146939
C            6.74185122080058        6.22978713463972       -1.48213011818933
S            7.41532114876325        6.93778495676846       -2.94482577568185
C            8.00593418237134        8.31281796067782       -2.08375921940072
C            7.71441808454595        8.23259209535514       -0.75723996301153
C            8.12108367776961        9.25546484808218        0.22521653437381
C            8.14213653013828       10.60465569333273       -0.12024577873206
C            8.55405879636811       11.55801049397433        0.78441093313950
C            8.95551676686183       11.18438984552956        2.05057705763894
C            8.94080629191163        9.85290194382385        2.41069776873002
C            8.52862945306471        8.90056001532408        1.50682540543151
N            7.00289586261128        7.05519156719780       -0.47360557167685
B            6.55913527589420        6.60570564313186        0.92478590587317
F            7.65876717893617        6.07597468367798        1.56988839425489
F            6.04691982651719        7.68875390647793        1.60771758544587
O            5.52974013639720        5.57466363391774        0.77982331623218
C            4.04353723759139        3.24321728034306        0.96218367290182
C            3.30713929456582        2.09225877687867        1.07257047010646
H            0.89371326954606       -1.05792035808195        1.04646300308777
H            0.95766581440376        0.65655157657749        1.43603305485071
H            2.14552278486936       -0.45860089481230        2.14081913464537
H            2.09788838960510       -1.97150906309168       -0.51638603223734
H            3.56897430771181       -1.24619060011587       -1.15159541500315
H            1.98797920757182       -0.74573797665102       -1.78526765978409
H            3.82938352322718        0.83565089661630       -2.01724186557726
H            5.14508326398016        2.89192896468386       -2.19965878478210
H            8.54931856758493        9.11265947636438       -2.54647795083662
H            7.82232158324333       10.89955131800654       -1.10466842255314
H            8.56180732582567       12.59837504042520        0.50311054386389
H            9.27600777893341       11.93161440880920        2.75797955074045
H            9.24608338026989        9.55833712204568        3.40146827273966
H            8.48855589332249        7.86468469478149        1.79079910014580
H            4.11484044976688        3.93036168945321        1.78786355952021
H            2.80462499209812        1.87015606962430        1.99681451509027
