32
 energy: -5.966348310328 gnorm: 0.000607387937 xtb: 6.5.0 (97a52f5)
C            1.40013163224285       -0.75336309160354        0.36970648106764
N            2.62142611737667       -0.05295514070757       -0.02954313381366
C            3.01289583882180       -0.16482871061730       -1.43487465011580
C            3.37729650868364        0.69574525732322        0.89072631993655
C            4.45284548192784        1.48705928691683        0.46950065039505
C            5.18485106019558        2.22057207768274        1.36696070244235
C            4.87747441598578        2.19689121352000        2.72662893200742
C            5.64588418549966        2.97693166986038        3.68861932601720
N            6.63134412878842        3.70906954016248        3.24788975872942
C            7.27216559575498        4.41615116360756        4.20629854682985
S            8.57589849725606        5.56664786359489        3.92022751994899
C            8.71881298264678        5.92407788708612        5.61576649119252
C            7.83015267338618        5.20336036820452        6.32711763079684
N            7.05606287054118        4.39007039368732        5.51549696801462
B            6.00099067699353        3.45698736784608        6.10453557917807
F            6.64990988132807        2.47345861037699        6.81916819642952
F            5.17444187573900        4.19777474602766        6.92106968588089
O            5.25224172696356        2.87455880074185        4.99252594608664
C            3.81032261331912        1.40943084038234        3.15328694321996
C            3.07636436348357        0.67565268090721        2.25782703530445
H            0.84770884763952       -1.09826784291234       -0.50147028885921
H            0.75324370986292       -0.08322513572174        0.93222015499664
H            1.65089448507796       -1.61529807926045        0.98466917576711
H            2.42630477609874       -0.92769727628108       -1.94192945045060
H            4.06166780265794       -0.44515481189539       -1.50786883848345
H            2.85601569259834        0.78582625832125       -1.94036602233489
H            4.70066986864064        1.52984272046093       -0.57589939325728
H            6.00764205725960        2.82908449905145        1.03401937125139
H            9.42349536155208        6.62410200351117        6.02339282713677
H            7.70889647789863        5.23441602387253        7.40009742150047
H            3.57481495118515        1.38938594222267        4.20383408231022
H            2.26426284259438        0.06675287363142        2.61259603087447
