78
 energy: -15.693737347534 gnorm: 0.000738658327 xtb: 6.5.0 (97a52f5)
C            1.36121368049513        1.94993012460404        0.64530672765712
N            2.52736815752108        1.09956944339165        0.89038854100766
C            3.07655936043342        1.11393753084448        2.24728632393353
C            3.07234235493766        0.29582499320147       -0.11298697683483
C            4.13460285894488       -0.57993221020533        0.15214455328709
C            4.66122664882186       -1.37469049504172       -0.83156581935130
C            4.16227737116754       -1.34338064722524       -2.13993163539235
C            4.73137366634296       -2.19352796464804       -3.17527980114192
N            4.41677201127173       -2.26722847796590       -4.50337599761050
C            5.20037107061112       -3.17227299538565       -5.17261293439157
N            5.20812147032926       -3.47099454841088       -6.47213670496842
C            4.29103943058119       -2.81157943816758       -7.18020257488640
C            4.02514924504354       -2.99315967774221       -8.58371739052641
C            4.76514524783115       -3.84548979829675       -9.50528702223059
C            4.28440755748078       -4.12476016088190      -10.78932531742007
C            4.99606246824852       -4.91231708604979      -11.65634688476441
C            6.23160682439558       -5.45968792409120      -11.28276773776104
O            6.97013115645034       -6.25188188573075      -12.13205458099550
C            6.71417135475972       -5.17851811158107       -9.99800954718396
C            5.99536661166784       -4.39467743317224       -9.13700713523534
C            2.93789917050892       -2.19301167402734       -8.89476758272899
C            2.52454776347166       -1.49833830621309       -7.74137999352621
C            1.39976768873433       -0.57681658592566       -7.67474668998792
C            1.21591979598499        0.28013010646651       -6.58785381546267
C            0.16456970297447        1.15431183364024       -6.53137501846777
C           -0.77301236444164        1.22349642835998       -7.57157250470231
N           -1.84079720154475        2.12199868301919       -7.52480171683616
C           -1.99580628855081        3.07486821200155       -6.42416045170246
C           -2.85059560660009        2.17274377873941       -8.58337034122645
C           -0.59285307400447        0.36191507168110       -8.66347710616775
C            0.46270401861388       -0.51002997827566       -8.71307003759331
N            3.37092363636254       -1.89378965088391       -6.74450701803849
B            3.36864838269709       -1.45891310863341       -5.27547070200932
F            2.11040241615378       -1.71711396604537       -4.75099954862292
F            3.71873932695246       -0.11857420817045       -5.19556652878915
C            6.07264069004573       -3.74143143326881       -4.17903687191851
C            7.06575714425884       -4.78748504360932       -4.38711683984222
C            8.01116831959738       -5.10262124704932       -3.40461677412890
C            8.93374106662523       -6.09661062575632       -3.60215576908541
C            8.95465582373972       -6.83235394046338       -4.79551050470707
O            9.86839543451510       -7.83609963748792       -5.02239408310621
C            8.00642914381040       -6.51901679211162       -5.77780342834904
C            7.09151332844305       -5.52201592246772       -5.57472658267528
C            5.77070067590288       -3.12334688484864       -2.97696731445454
C            3.10802004745880       -0.46524632361697       -2.40080654796444
C            2.57517977132307        0.33073562227774       -1.42304845160699
H            1.01785457396321        2.42028399080214        1.56401750680726
H            0.54297719271127        1.35373959878903        0.24637756621298
H            1.61414422181954        2.73280323571504       -0.06676421685485
H            2.58311094454417        1.86264926831215        2.86296865418887
H            4.13837298992097        1.34982855234370        2.21716486011379
H            2.93916239370408        0.14115854833888        2.71496087338850
H            4.53732855738974       -0.63232307647919        1.14767354492372
H            5.47584185696201       -2.03485372108678       -0.59408050244615
H            3.33583932048113       -3.71981651039590      -11.09447038615813
H            4.60951771641829       -5.11837021694504      -12.63820570608607
H            6.50484567753138       -6.35716410753576      -12.98456280380823
H            7.66246640822976       -5.59250098110898       -9.70555049840055
H            6.37886960761831       -4.17807722421971       -8.15882763213038
H            2.50270251860342       -2.09042960733507       -9.87235866508316
H            1.93148695221945        0.25270737252603       -5.78987260221945
H            0.05426197557100        1.79790800528466       -5.67721990987326
H           -2.18402297682188        2.54213072316216       -5.49432048662435
H           -2.82724228908312        3.75257065040162       -6.60502097000873
H           -1.09246619835157        3.67204731492008       -6.31818641321644
H           -2.39606661746945        2.50248770989157       -9.51556012021935
H           -3.65135472864437        2.86358892142145       -8.32904599371765
H           -3.28945053911772        1.18749006056787       -8.72753544102648
H           -1.29318066299035        0.39255511682382       -9.47871316921755
H            0.57061549129082       -1.16361406788418       -9.56027172532245
H            8.01751324340734       -4.54609286281545       -2.48427540654387
H            9.65463403183462       -6.32267077080908       -2.83711200981045
H           10.46233115877116       -7.93191189360271       -4.25269529374332
H            8.01568175948983       -7.08064646939235       -6.69481049212133
H            6.36622394753028       -5.29447292043819       -6.33165562936125
H            6.24410631524406       -3.34092616792279       -2.03700750902030
H            2.70925238577200       -0.42012687280262       -3.39463428510473
H            1.76563541107934        0.99643075668056       -1.66289099902957
