108
 energy: -22.906680579582 gnorm: 0.000701583963 xtb: 6.5.0 (97a52f5)
C            0.36309803979014       -3.98124715091044       -0.44100910043104
N            1.79342486211718       -3.67734543885015       -0.49257582360052
C            2.58391572812530       -4.38461980958546       -1.50051742712384
C            2.37641472543892       -2.72596871597124        0.36637897251342
C            3.75714841722704       -2.50000883836548        0.36659024771525
C            4.32400825618226       -1.56544885352022        1.19763118237666
C            3.54141177962741       -0.80900276681050        2.07333858401785
C            4.14732409878988        0.19995546543632        2.94075450956145
N            3.64396272039105        0.75630478892966        4.07435016952222
C            4.50085616680600        1.67790306506570        4.62406223352327
N            4.36737495941007        2.36698141813753        5.75994406979687
C            3.27121541673361        2.04829433297918        6.45275296551096
C            2.93245000760103        2.53830261242392        7.76024766596016
C            3.70859286415447        3.48518893283122        8.56182623210038
C            3.18230198429232        4.07147776466786        9.71424790671411
C            3.92350976117579        4.95834886601455       10.45549730029958
C            5.22858118347821        5.30423678860189       10.08730945900598
O            5.91047797322637        6.21989447968180       10.89738819571515
C            7.23784461939072        6.52331266440926       10.47503020623119
C            7.91817273926435        7.52127519762773       11.40166431686867
C            9.35642774323951        7.83414473671584       10.98977611468107
C           10.03888798926493        8.82054800559262       11.91351367810812
S           11.77336513535625        9.13144177950166       11.38906151141530
O           12.42135908964703        7.79311306492174       11.50357799002267
O           11.63505056581834        9.65849781609844       10.00090115270364
O           12.23124345340864       10.13157199984895       12.39280797377015
C            5.75676116142296        4.71161823263469        8.93567939466950
C            5.00981418993335        3.82876908804325        8.19799648800125
C            1.74617646657539        1.92395110576560        8.12570552784411
C            1.32607356139546        1.06971952453066        7.08600520527113
C            0.12992069917763        0.22903183382045        7.10827147981294
C           -0.43778373027675       -0.25869077452287        5.93268164589167
C           -1.55741922922622       -1.05063788858602        5.95182284041502
C           -2.17353511091650       -1.39557932681610        7.15897159581584
N           -3.31890313090535       -2.21412607446627        7.18415336394083
C           -3.94430550076127       -2.69289382317714        5.95079765471729
C           -3.92426172099219       -2.64466372674514        8.44487919409095
C           -1.60937585187998       -0.90119328447105        8.34001837829019
C           -0.48803203771259       -0.10901495453392        8.31470265246681
N            2.26454935343306        1.17968690514390        6.10891388654461
B            2.28232345575010        0.50078490516636        4.73305698816525
F            1.29168980743956        1.07789000562533        3.94221407727737
F            2.10791327360929       -0.86909413701165        4.89753729877898
C            5.64230418913715        1.71414146658356        3.75290678625786
C            6.82451185824060        2.56284066692671        3.90660848201499
C            8.01288799219124        2.28964218832820        3.22754940411885
C            9.11088128938152        3.10032922267368        3.37614396463114
C            9.07702943678894        4.23071145036657        4.20093080714612
O           10.24265724151350        5.00411718235501        4.28558474901051
C           10.08587533484966        6.29658682784197        4.87100044444005
C            9.29761378975863        7.25694453299663        3.98933230047456
C            9.13495760710042        8.64506450803958        4.60697600477315
C            8.35683652933979        9.59644236650222        3.72256611644765
S            8.17933595693673       11.24837227245193        4.50939386120313
O            7.45116463778975       10.96212073016458        5.77895503857744
O            9.58670534146230       11.71670716871683        4.66751276701541
O            7.38761801765929       11.99383988340741        3.49129430103630
C            7.88597784749927        4.49952095803694        4.88393292735331
C            6.79399404755690        3.68223911342414        4.73685790730094
C            5.40873042739569        0.79717838927056        2.74186424985022
C            2.16637323238192       -1.03633718722020        2.07234398101172
C            1.59475834926631       -1.96929981286903        1.24521802930574
H            0.11858022326280       -4.82754079094883       -1.07997931412791
H           -0.21351843601024       -3.12052200340767       -0.77515554180220
H            0.07047653377429       -4.23377363806482        0.57658503869368
H            1.94645153747829       -4.97367171909653       -2.15701704319011
H            3.29152635029446       -5.05551111884978       -1.01666042350959
H            3.13080835616768       -3.67149929924382       -2.11485001944843
H            4.38474397639723       -3.07430006935794       -0.29137076008385
H            5.38971807805358       -1.41712682740713        1.18627390231120
H            2.17868383197017        3.82961607792161       10.01711772752782
H            3.51051968923159        5.40916976915673       11.34046482216552
H            7.19123788088002        6.92212587051917        9.45541913692575
H            7.80697597117728        5.58753258739576       10.44193543294942
H            7.89908847827119        7.13175665086588       12.42580767960894
H            7.32783221224298        8.44392052504305       11.43610263559652
H            9.37103559751748        8.22036932430001        9.96232829065226
H            9.93855380409240        6.90426475431145       10.95139116911706
H           10.05748168460848        8.44958332470924       12.93812921374972
H            9.51115687918028        9.77397097896971       11.92990167480469
H            6.75628335512014        4.94855365174411        8.62011323303899
H            5.42755744262509        3.37985639847039        7.31753146053037
H            1.22477663461729        2.07551951750392        9.05404523937298
H            0.02337552661679       -0.00025719315594        4.99850219725660
H           -1.96459821329715       -1.41689057042233        5.02630973907548
H           -4.20112903889588       -1.85082545025328        5.31064019779487
H           -4.85727239652204       -3.24619192319116        6.16160621649448
H           -3.26131901625852       -3.35138962039351        5.41709039081989
H           -3.18227023715036       -3.14638767305309        9.06343372520329
H           -4.74305563362701       -3.33990592260000        8.27086725468603
H           -4.31556831643102       -1.78401232660093        8.98435096351871
H           -2.06416267045238       -1.14583238471944        9.28335091623360
H           -0.06588634543774        0.24829503614942        9.23768409653126
H            8.06673994222314        1.42535011600433        2.58885052937975
H           10.02462096737714        2.88313050683154        2.85189040036846
H           11.09600497656319        6.68703725438146        5.04188507833240
H            9.63910600546586        6.18824031169242        5.86455592805724
H            8.31203307723904        6.83349944775683        3.76814404559914
H            9.79317383255871        7.33767401419162        3.01511498471648
H           10.12268696782975        9.07037157375638        4.82713312576201
H            8.63878249957536        8.55937533216826        5.58244009802076
H            7.35860656707826        9.21104851863845        3.51538452068005
H            8.85151133422795        9.73091387393049        2.76073903486750
H            7.82233491453929        5.34823957716237        5.53957490240802
H            5.88394717695107        3.90138173468657        5.26273695019217
H            6.06621164911701        0.60270115279938        1.91311998413916
H            1.55288670260054       -0.45528082979015        2.73424376152474
H            0.52941058501923       -2.11499026371903        1.26509732220451
