76
 energy: -15.374023919776 gnorm: 0.000822919903 xtb: 6.5.0 (97a52f5)
C            1.58900753396251       -2.01875027966809        0.89787789788517
N            2.51357193032171       -1.38124915887136       -0.04167956627783
C            2.80501446189283       -2.11710893204234       -1.27377190176043
C            3.09191115322142       -0.14367986696485        0.22633814437764
C            3.93594853762236        0.48365020210089       -0.70447362320555
C            4.50639036821474        1.69915777017519       -0.43790627915245
C            4.27083926923611        2.36462374937788        0.77313346400767
C            4.88728478405390        3.65075513230848        1.04909156642599
N            4.61324041401932        4.53788081123028        2.05190756509284
C            5.39819776342999        5.65993066742840        1.97874694124900
N            5.40626096462070        6.72540656361411        2.78098678907908
C            4.46253928162035        6.69368485336863        3.72276540279462
C            4.17956740158881        7.74941113604955        4.65980690492692
C            4.93325861943049        8.99266953716292        4.82283090691375
C            4.42114674036487       10.06269911691405        5.55770208937616
C            5.15086199453951       11.21946334216807        5.72048105874193
C            6.40681839918023       11.33457751496909        5.15832174381083
C            6.93122401428705       10.28702948830666        4.42824653753041
C            6.20114151452920        9.13301440901357        4.26226810163002
C            3.07532853780699        7.35451522602327        5.39291268629953
C            2.66590715695124        6.07380834644933        4.96613185112553
C            1.53926898843188        5.32977295273016        5.50242250113809
C            1.37138012540396        3.96606451002819        5.24576828124682
C            0.31106274872972        3.26576666554914        5.75128835469089
C           -0.65183832618600        3.89394418178487        6.55740970608085
N           -1.73231542785485        3.18650094043119        7.07693750137019
C           -1.95325836432028        1.77428738983040        6.75928301504569
C           -2.70938221315551        3.81714778948753        7.96660110638534
C           -0.48179425196701        5.26298734554073        6.82149681275989
C            0.58117744837004        5.95744384418987        6.30996838505610
N            3.52924186481516        5.71995368183338        3.96768693118335
B            3.57720863483278        4.40861588907756        3.17484510413179
F            2.33085198016438        4.17539894303417        2.61080520512921
F            3.97689882455129        3.39222100229378        4.03286722045146
C            6.24128945095826        5.47189922587108        0.82681040405991
C            7.22894066279481        6.41630795187569        0.30416034891437
C            8.13011653094745        6.04748985819013       -0.69571349757240
C            9.04456269694434        6.95160407070055       -1.18940002138522
C            9.07974910030334        8.24251496875388       -0.70088838102593
C            8.19561741453322        8.62821621486099        0.28645771877752
C            7.28454339665247        7.72417541838444        0.78121184254934
C            5.91078826085206        4.24480292422884        0.28146487232861
C            3.43328313499861        1.73610992741297        1.69908561659963
C            2.85688031178706        0.52346808747757        1.43918606647213
H            1.17561912009481       -2.93537255658500        0.48279335707427
H            0.76205274561773       -1.34736296152845        1.12035788576445
H            2.10784583373056       -2.26535467236929        1.82202995748114
H            2.32929427945847       -3.09534787744511       -1.26997093145805
H            3.87842535038576       -2.26543462470252       -1.37424755835322
H            2.43864264778311       -1.56230327733448       -2.13523793882402
H            4.13092315406180        0.00162635081134       -1.64558094193481
H            5.13897344964753        2.15977652914280       -1.17551813951225
H            3.44101439603743        9.98186222759960        5.99331307780588
H            4.74098170208969       12.03798917100710        6.28928726814336
H            6.97621116848391       12.24025814146805        5.28875790135266
H            7.91140432814881       10.37391608003598        3.98888746822863
H            6.60624366958381        8.31326728110972        3.70027570170623
H            2.62988268898916        7.91649539386294        6.19394771843304
H            2.10830872705148        3.46484918742098        4.64882263662624
H            0.21686320052123        2.21632749958841        5.53719768382553
H           -1.98206168867220        1.63394194177477        5.68065471226651
H           -2.89754825084381        1.42251440439735        7.16874678711596
H           -1.15150239768184        1.16851212423080        7.17664578253100
H           -2.20337462486001        4.26150091537010        8.82131663143596
H           -3.42720090518914        3.09062546867649        8.34107697894743
H           -3.25453653728461        4.59220915003653        7.43167872250409
H           -1.20519419286250        5.77436966278989        7.43071778434532
H            0.67864103848528        7.00820289572271        6.51802586815008
H            8.11237509640715        5.04269237218834       -1.07883704754372
H            9.73532566947617        6.64999647379979       -1.95988746052838
H            9.79519665808001        8.94840517802418       -1.09002193173623
H            8.21949982365345        9.63533883551055        0.66918152149224
H            6.59178504146273        8.02148469463727        1.54447014989538
H            6.36251587513767        3.81453124847252       -0.59388724611662
H            3.25800394680368        2.21996099006769        2.63992604988634
H            2.22230515273025        0.06763833953342        2.17774417574223
