68
 energy: -13.789910651156 gnorm: 0.000555764013 xtb: 6.5.0 (97a52f5)
C           -1.89823940087789        1.60800348273635       -0.99011047621757
N           -0.46523090379438        1.88802371179767       -0.88195940600182
C            0.16579974429522        1.58886300432643        0.40505800666657
C            0.25921844370284        2.41780121982469       -1.94662930982156
C            1.63684518822914        2.66550672022580       -1.83840612331508
C            2.34125675333508        3.19653113677917       -2.88246135479472
C            1.72471436061887        3.52657282885203       -4.09558947027035
C            2.47133051491752        4.10847573830312       -5.19588996706963
N            3.78862913955222        3.93777180795351       -5.49949997012973
C            4.14723825898030        4.48333306097649       -6.71102789059691
N            5.30644898036195        4.42346961740030       -7.35645495802406
C            6.23509637056991        3.74488835550359       -6.69226398273157
C            7.59513480536846        3.56360948840665       -7.13185082112706
C            8.23687526120192        3.94022060676617       -8.31015385143120
C            9.55612802623235        3.59633604291048       -8.48029520340386
C           10.23848519271923        2.87394333240917       -7.49992251472060
C            9.61825600356615        2.49926371585920       -6.33157097333411
C            8.28293762070088        2.86153590873806       -6.12316655046350
C            7.35334228440741        2.62254894640370       -5.03835688944217
C            7.67281793010448        2.06119841700091       -3.73874907236664
C            8.97185997575221        2.13508914241010       -3.21209623054256
C            9.27983274986773        1.59344105066060       -1.99404356275491
C            8.30495977731703        0.94510112039048       -1.21837687538194
N            8.61931019403484        0.37836861533445        0.01409500841055
C            7.61806493282383       -0.33147001671206        0.81261076717071
C            9.97043886032851        0.45182603275195        0.57345900755596
C            6.99934431251250        0.89345564285350       -1.73171657153299
C            6.69886023421898        1.43904152921251       -2.94834161851797
N            6.16225055798297        3.13007815370039       -5.46306177639716
B            4.83552481409311        3.15867723479047       -4.69312944702315
F            4.35507062594441        1.86591069291147       -4.53649983209179
F            5.07344089598407        3.80256428836586       -3.48691732699534
C            2.95637479717535        5.12090566853879       -7.21233065155653
C            2.72706247188754        5.85471488912908       -8.37466283999466
C            1.47685616333511        6.38528607634771       -8.58252290511255
C            0.45846618500597        6.20412902322890       -7.64510863523376
C            0.66964105137320        5.47765596739450       -6.49723139880868
C            1.92662379333182        4.90442357221053       -6.27628332585004
C            0.35266792756301        3.25391038058854       -4.21094100140666
C           -0.35828201278420        2.71919162587123       -3.17150463275374
H           -2.29089013421425        1.19765417631693       -0.06240169261147
H           -2.07716943584710        0.88464334177244       -1.78309049515027
H           -2.44123295020736        2.52439269345035       -1.21259326852393
H           -0.55907588687750        1.20643748598735        1.12027779926729
H            0.60833470483907        2.49156238609944        0.82147080916224
H            0.94221687217064        0.83787432916211        0.27373775923116
H            2.14489015439453        2.42967111177777       -0.92061613421746
H            3.39488682450068        3.36702705014387       -2.78337571682645
H            7.69488933134241        4.48291680484990       -9.06403773196602
H           10.06780340865332        3.87774165092114       -9.38587983026819
H           11.26708771235899        2.59937153480529       -7.66661164120517
H           10.13847888012087        1.90167614057316       -5.60556097731750
H            9.72689840910410        2.67037299975418       -3.75859186769080
H           10.28507121914614        1.66776602135795       -1.61976877996774
H            7.18445291148071       -1.14271743151610        0.23128010179381
H            6.82841488681407        0.35367677181497        1.11435258822739
H            8.06021216075843       -0.75878539458057        1.70991901957620
H           10.27700989956707        1.49131706749622        0.67221516315844
H           10.67136520917825       -0.06766118119853       -0.07707244880786
H           10.01477138139130       -0.00791425296947        1.55833937416957
H            6.22415517609327        0.42071049606251       -1.15591529715751
H            5.69336486173753        1.39720708000212       -3.31742475783758
H            3.52441963611581        5.99905885954334       -9.08172023653614
H            1.28199166615836        6.95681577260338       -9.47494951905926
H           -0.50764189234295        6.64716910877924       -7.82271384680993
H           -0.10706127398277        5.38348733401481       -5.76049045462912
H           -0.13626740199185        3.42541267019726       -5.15271531557392
H           -1.40746921233968        2.51895754003109       -3.29457797481629
