43
 energy: -8.642351895140 gnorm: 0.000692204108 xtb: 6.5.0 (97a52f5)
C            1.30132194508800        0.38465601049728        0.89958483374715
N            2.52084708578947        0.06606303828560        0.15626359167099
C            3.15550848111355       -1.21807850940063        0.45681023761608
C            3.05531454308196        0.94548847775721       -0.79262834941706
C            4.16232743859691        0.58553400650246       -1.57327257442821
C            4.68475593409440        1.44723034302696       -2.50143016521562
C            4.13482698665614        2.72084850398656       -2.70171109091451
C            4.71458326076956        3.60152360944254       -3.68637956560729
C            4.32987277302934        4.87350484128547       -3.93185065068275
C            4.94208905579636        5.69465476867982       -4.91826490938642
C            4.58379713624004        6.97869161757909       -5.14467049305780
C            5.19967792057701        7.80190386862702       -6.12917418943857
C            4.86392984579790        9.09345968780624       -6.32708292713823
C            5.45485065942765        9.97886211587020       -7.30958598232883
C            5.08334160125729       11.32671004181843       -7.33617958897470
C            5.62458674145000       12.19388607749147       -8.25516729630998
C            6.55731751531121       11.75106152826064       -9.18754386817909
C            7.10820681045341       12.63636451754851      -10.12589199272758
N            7.56302686610380       13.37024660671376      -10.90310440382799
C            6.92997976005785       10.41068455564108       -9.16981828151524
C            6.39172308861650        9.54083405922871       -8.25094855975660
C            3.02754236240293        3.08126471780097       -1.92134131782741
C            2.50309410924338        2.21799311818389       -0.99503434637407
H            0.96376235793906       -0.46910960643842        1.48346379423859
H            0.50388766169759        0.65629402032496        0.21053156492922
H            1.48440600554344        1.21485476929687        1.57905640771395
H            2.66945267417479       -1.70917158399372        1.29707883677144
H            4.20126736015395       -1.06583415888381        0.71625507574316
H            3.09399317699302       -1.87658397859205       -0.40721966442293
H            4.60369534448830       -0.38640722487849       -1.44429158546964
H            5.53496385314604        1.15005320118956       -3.09113877834688
H            5.52931806065852        3.20579406412074       -4.26717277577268
H            3.53061990771564        5.30432729044955       -3.35738185499807
H            5.73480914526833        5.26918362633494       -5.50866571881680
H            3.79654705076572        7.40692719205619       -4.54896759515098
H            5.97513499645682        7.35925345348045       -6.72701626182881
H            4.09792041129064        9.51352330314988       -5.69899500970937
H            4.36372988473328       11.68453675924632       -6.61994359929763
H            5.33160924099791       13.22991739555456       -8.26322568593002
H            7.64879696178775       10.06155714287830       -9.89145974609785
H            6.69090419769592        8.50833677398270       -8.26555515258717
H            2.57798945777133        4.04908595984339       -2.05185457084845
H            1.65824032975529        2.52355399824149       -0.40427579005650
