37
 energy: -7.308704707742 gnorm: 0.000812943624 xtb: 6.5.0 (97a52f5)
C            1.04251721746301        0.06282176810439        0.51374952551482
N            2.39483992592991       -0.14179432420253       -0.00704199967464
C            3.10430403119674       -1.33625703515557        0.45375560026696
C            2.98010753437476        0.76108480342781       -0.90560890603545
C            4.24732763923899        0.52472837832761       -1.45144856712677
C            4.81915397091353        1.41324203454594       -2.32547600658037
C            4.16332302532818        2.59060507255352       -2.70736856349399
C            4.83898101079364        3.49674406595722       -3.61962858650276
C            4.47808279878841        4.68761442223620       -4.15086812853899
C            5.41210933504683        5.46083132385174       -5.04841222670350
C            4.72343578677191        6.75163644813197       -5.36778540472781
C            5.14768409161616        7.83687988133404       -6.10825468476476
C            4.30406283793399        8.92467026154394       -6.24513280188325
C            3.05273233010898        8.92811287273443       -5.64927100324230
C            2.62535340991893        7.84613522160919       -4.90670526980161
C            3.46939772182164        6.75753611681942       -4.76736028497085
C            3.25053493972422        5.49767919210063       -4.02395679804371
O            2.21477870407463        5.23774835288689       -3.44505378048698
C            2.89830127302247        2.81750035588305       -2.16273900643859
C            2.31975336304835        1.93361055044467       -1.29014920837962
H            0.73677418971700       -0.76420734888177        1.15099087058940
H            0.33398760681140        0.13520255922948       -0.30896745619388
H            1.00219793932356        0.97827568112286        1.10059042083598
H            2.53966760116129       -1.85534961080418        1.22545169130967
H            4.07063897814226       -1.06058750621357        0.87165263722816
H            3.25759836976502       -2.02123187691298       -0.37797005420339
H            4.77799744719550       -0.37096380088801       -1.18265669501056
H            5.79590771365423        1.20840312413749       -2.72944191905115
H            5.81943380452640        3.15831041149505       -3.91281719873685
H            5.62234695412472        4.89823474088447       -5.96473473322232
H            6.36745885460609        5.64714380164861       -4.54557890417402
H            6.12121142305133        7.82531743048967       -6.56643879571248
H            4.62340274060360        9.77777349419378       -6.82088159188379
H            2.40758731270268        9.78342207360421       -5.76566222372564
H            1.65801421400326        7.83359942744574       -4.43591160331561
H            2.37129759737139        3.70716793786622       -2.43941346729169
H            1.34423630612481        2.14409969844119       -0.88974487583126
