37
 energy: -7.053314590978 gnorm: 0.000552210106 xtb: 6.5.0 (97a52f5)
C           -2.75324251380730       -1.33936432417133        0.59243226896757
C           -1.40245877340017       -1.44728130191021        0.42194498121043
N           -0.60784212887343       -0.37626019265498        0.14710551970852
B           -1.26426600639327        0.93934226457975        0.12294463440044
C           -0.38762736460976        2.16513575046775        0.31053312086410
C            0.93750141299677        2.02159563724260        0.22671065200335
C            1.55684306986754        0.75098377182301       -0.00460479129304
C            2.94758589881492        0.66716147307008       -0.17170743713435
C            3.55997594934121       -0.53799083591897       -0.39076089170444
C            2.80265163209948       -1.69898096009693       -0.45061194682844
C            1.44277997477353       -1.64545652755829       -0.28309584403654
C            0.78962054914343       -0.43103900637189       -0.04967976298041
C           -2.78766654314075        1.04419808606008        0.16047373506560
N           -3.44967982442537        2.24665186898885       -0.07611264211430
C           -3.00473433577863        3.19916082417668       -1.10870450331881
C           -3.18680603528069        4.63287906871639       -0.61345376288346
O           -4.53416571994218        4.87145020722320       -0.21661106038307
C           -4.96244510159756        3.97875350310581        0.80891330288162
C           -4.82094765450894        2.51347339727355        0.38982617439214
C           -3.42815773226774       -0.13611948261838        0.45724696170280
H           -3.32135250364029       -2.22736386935243        0.81910184846572
H           -0.93540263737899       -2.40775575958323        0.53905006628590
H           -0.85619503912891        3.10477489097231        0.52649053259553
H            1.57440022748237        2.88303023832629        0.33545233731046
H            3.53384292173123        1.56903433777799       -0.12788435430944
H            4.62892920307995       -0.58549224756050       -0.51992662074341
H            3.28681682244971       -2.64492256458037       -0.63118786590460
H            0.86783181715822       -2.55091203768678       -0.35178068550146
H           -3.61375885999803        3.03210987141048       -2.00226118843278
H           -1.97071138150733        2.98627607052513       -1.39645593762476
H           -2.92787248425301        5.36853840658187       -1.38583513022693
H           -2.54439459143462        4.83345719579339        0.25136727392383
H           -6.00222759141834        4.23134867481992        1.05405365665901
H           -4.36265397341391        4.18669203446425        1.70260237673544
H           -5.51601511053715        2.27494305827580       -0.42037852855418
H           -5.05628026269155        1.84624619600330        1.22524238733556
H           -4.50126530950337       -0.13182771760596        0.53599112346597
