47
 energy: -9.194002725778 gnorm: 0.000719206110 xtb: 6.5.0 (97a52f5)
C            2.98465012018766       -0.33789727577447       -1.18763314816172
N            4.21367342177024       -0.73863667991622       -1.87019026768875
C            5.34143870500304        0.19020157237259       -1.80252558557326
C            4.31432956281314       -1.97437800350903       -2.54792089917711
C            5.43052175461753       -2.27696353107091       -3.32868637653015
C            5.52966676652358       -3.48250825930290       -3.98339294912095
C            4.52492034388210       -4.42847100601164       -3.89150499491172
N            4.68901547670805       -5.75477798762508       -4.53549392606189
C            3.83690483582255       -7.12951581692971       -3.79576647171284
C            3.25684333333931       -6.47726492848058       -4.85377252063285
S            8.27421533740097       -1.52275297923224       -5.52247723411972
C            6.35809631790824       -7.80392121708164       -4.01984774374019
C            7.49020595668880       -8.19954665654883       -3.38202286930876
C            7.78882923504680       -7.67741687763515       -2.15875849744009
C            6.90782775450717       -6.72897156797687       -1.54100592195678
C            5.78032230186176       -6.32172149010111       -2.13949859758207
C            5.41424291108485       -6.83487110581401       -3.49531064711253
S            2.63864047572468       -5.55797207182324       -6.25288239800421
C            4.29838800418163       -5.40791872343031       -6.84654558150699
S            4.99091274046951       -4.98073682271177       -8.39299871133389
C            6.64143168622878       -5.05747615191618       -7.74500096755713
C            7.85436566328797       -4.79515892099657       -8.36426126844948
C            9.01504749943119       -4.90225338015531       -7.63660810663236
C            8.97755208343502       -5.26870879505527       -6.29234492608050
C            7.78363003021493       -5.53239545592226       -5.67179449353955
C            6.58668437828360       -5.43519083679008       -6.39800599353038
C            5.24634074246681       -5.64777552596782       -5.91544380711254
C            3.41289029029307       -4.13864390490540       -3.11926858231064
C            3.30506110034041       -2.93530188534331       -2.45853765954013
H            3.01732932438264        0.71436319166243       -0.91211852902207
H            2.84958138589110       -0.92780536491306       -0.28318881517692
H            2.12619715675200       -0.48659934386967       -1.83987199945801
H            5.15386246470872        0.98006318052059       -1.07769840169091
H            5.50827410329337        0.64812262072180       -2.77574185622967
H            6.24429443423585       -0.33633594652367       -1.49827737895380
H            6.21714247564763       -1.55142798935230       -3.43166657731685
H            6.39556507136252       -3.69597394020633       -4.58290749454897
H            8.14439749723531       -8.91930656961501       -3.85194041739424
H            8.68595172858556       -7.98053935244290       -1.64582058896233
H            7.16394637532578       -6.34446029962533       -0.56779826674392
H            5.12535460793700       -5.61593717334907       -1.66193024346351
H            7.86960770219985       -4.50703985518506       -9.40084975609489
H            9.96254781566280       -4.69860173967954       -8.10765004825826
H            9.89721240210212       -5.34536724190119       -5.73611664804365
H            7.75167568002740       -5.81686779527334       -4.63607444483163
H            2.62829160511671       -4.86991685206976       -3.03433726313817
H            2.43715934070970       -2.73592324620449       -1.85561012419853
