47
 energy: -7.567850820986 gnorm: 0.000720037906 xtb: 6.5.0 (97a52f5)
C            0.98602174786726       -0.50619298770954        0.59451856310130
N            2.44586522807364       -0.43417403727445        0.52903749157453
C            3.12117109290393        0.34889856319582        1.56412429742152
C            3.16194332017575       -1.00268736093031       -0.54813504500018
C            4.55022518130497       -0.87323629047865       -0.64049814329748
C            5.24232241784034       -1.40387860315102       -1.70619396829471
C            4.57431275176285       -2.07734227734823       -2.71650579495941
N            5.28122357130065       -2.54927948160384       -3.82149544202051
C            4.55517606223098       -3.67489953569075       -4.79473252693976
S            5.69501600741036       -4.29643357008100       -3.70966642814534
C            4.97181653623830       -9.14484670932259       -2.69277543589381
C            3.90778454970205       -5.73877455751123       -6.07140310347127
C            4.10448117442921       -6.29141704248599       -7.26690121628083
C            4.03972311192543       -5.56157983187762       -8.34678747929220
C            3.75592122436247       -4.22558765015028       -8.26956155821069
C            3.55471521480023       -3.60799725211785       -7.13072766237545
C            3.65692758887576       -4.34634586683833       -5.85364776829665
S            0.27746850518094       -0.16108665459963       -8.26491638102718
C            1.36584811578291        0.07295976414891       -6.92740439022556
C            2.78721854659814       -0.20616446369454       -7.07155799087429
S            3.38265624389094        0.21017652393662       -5.49680420957365
C            3.16413183751578        0.82197520363244       -3.94023620060980
C            2.05513096027908        1.21770182920555       -3.28142576935539
C            0.73125609400711        1.44026476358405       -3.17082200265761
C           -0.32443418016062        1.31544642143296       -3.94864706941221
C           -0.32415222358797        0.88169741290338       -5.20282875773783
C            0.87580158989744        0.51290025811664       -5.76785595636492
C            3.19875186011116       -2.22651997580079       -2.62773742995708
C            2.50246886340068       -1.70018576471874       -1.56311821500493
H            0.60557501314184       -0.00640466037616        1.48336039096627
H            0.66290687797683       -1.54528986957424        0.62693449394773
H            0.54853242245051       -0.02565966233158       -0.27897280760319
H            2.41508144050570        0.71036660293829        2.30931035906032
H            3.61509127786458        1.21057774896120        1.11799393578514
H            3.86449425977264       -0.26301229838756        2.07226284479556
H            5.08453140667279       -0.34508295669096        0.12883202089664
H            6.31099053405195       -1.29315619448674       -1.77376749821841
H            9.38227602684653       -9.53151596701330       -4.18386318009345
H            7.23829148636965      -12.30884051160521       -9.43945631360160
H            4.96970775394663       -8.03673636484075      -14.74746058102732
H            3.32515594189271       -2.55637198539076       -7.12046804239615
H            4.07812070783820        0.87494237192674       -3.37651130125705
H           -3.38134372272567        6.30272896921433        0.70678992459437
H           -6.52121952057956        0.87900468933925       -7.09126287888320
H           -0.46927867445720       -2.77101814270162       -9.84171545732849
H            2.67636348297281       -2.74473119685630       -3.41293481103648
H            1.43425028345048       -1.81526140025993       -1.51871551190486
