47
 energy: -8.536687230877 gnorm: 0.000570163703 xtb: 6.5.0 (97a52f5)
C            2.55185849618736       -1.47503917788371        1.85224739700894
N            3.13833156323964       -0.66089261900376        0.78762044186854
C            3.97392201085705        0.46699377395904        1.20092542832521
C            2.97154907350619       -0.99332840634180       -0.57578552994877
C            2.30425547363203       -2.16273075013311       -0.95507505801359
C            2.15219364615337       -2.48577574027793       -2.29068532164462
C            2.65754840186604       -1.64609536153789       -3.27091406144636
N            2.44844075714177       -2.09494367910081       -4.61007581373384
C            3.16173056151701       -3.50551577576503       -5.13429499833857
S            1.65346739016955       -3.79021461874534       -4.39011206519381
C            5.81843647567714       -3.98140793512561       -1.17250003253466
C            3.83231932868250       -5.72586515183573       -6.10554043554759
C            4.05962666218761       -6.31075997476365       -7.28040014297401
C            4.69636482814054       -5.67146836368193       -8.22347805916027
C            5.13730886892425       -4.39160452611338       -8.02485890591992
C            4.95899165152156       -3.75038780089359       -6.89504502941628
C            4.23990128047823       -4.39303622576471       -5.77556035421340
S            4.50092650764287       -0.03229427678105       -6.04873806108993
C            2.80390090036863       -0.28722452221064       -6.27991544957765
S            1.91228222008265        0.64091422506951       -7.47390432916386
C            0.37916775681491       -0.12648750903089       -7.05215790356101
C           -0.89355913785874        0.08218052076391       -7.56233483935471
C           -1.94629748242110       -0.63214138003351       -7.04414302683625
C           -1.73815396853869       -1.54917092195998       -6.01578115096587
C           -0.48081740779374       -1.76280641729151       -5.51018095054869
C            0.61359827713857       -1.05612180254277       -6.03527153911724
C            1.99011095346241       -1.15496723788997       -5.62232324936372
C            3.32386769101082       -0.48720374282760       -2.91292835175978
C            3.47743388447243       -0.16462472365407       -1.58359740638723
H            2.66618558084677       -0.99408675903874        2.82198068790294
H            3.03953779780823       -2.44753808219354        1.89278409849591
H            1.48762574102194       -1.61863839815813        1.67353469603184
H            4.10136875712987        0.48705955531076        2.28167342940056
H            3.51570904754024        1.40533989255483        0.89304912102558
H            4.96077638732504        0.38805993359746        0.74788149911918
H            1.91525654942309       -2.82317936011430       -0.20139080779962
H            1.64420835086842       -3.40786198414358       -2.61502777300188
H            1.64840095279116      -11.32846310810623       -3.18197349531022
H            5.28687500767802      -13.80480556239201       -6.69029538256641
H            6.76051078152605      -11.55335548020864      -12.39232462109012
H            5.26356482594867       -2.72320864338343       -6.79666544743715
H           -1.03908616056486        0.80049638145755       -8.35024744257187
H           -2.94033210632405       -0.47900660101009       -7.43093735857736
H           -2.57542595349533       -2.09457003441487       -5.61247438421932
H           -0.32696205828075       -2.45671315071589       -4.70491137914852
H            3.72676855906414        0.14331332243340       -3.68418705694057
H            3.99263127221415        0.74021820090514       -1.31492958544584
