53
 energy: -11.896690317194 gnorm: 0.000858388522 xtb: 6.5.0 (97a52f5)
C            1.36786502530310        0.59475025636299       -0.59234374400700
N            2.59948657242499        0.18968888032892        0.08742214457714
C            3.13996213756621        1.12570364217772        1.07469131802672
C            3.21881281150252       -1.03091734094648       -0.18290081429088
C            2.71359872964183       -1.90148909879363       -1.17827707462962
C            3.31889864762496       -3.08798712308480       -1.44636672584389
C            4.47502939837735       -3.50081630717708       -0.74503835466121
C            5.10856739136289       -4.73702276580811       -1.00395149058449
C            4.60905339084395       -5.63394775835215       -2.07407909497697
C            4.64611687657447       -5.20815837300298       -3.40342562907651
C            4.22335777692652       -6.01523642552091       -4.43889853119671
C            4.27960234705974       -5.51939555641540       -5.85649433002884
O            3.89582535773221       -6.29550183835724       -6.74236317646762
O            4.70557591897202       -4.36953445204540       -6.03306082839900
C            3.75158597104360       -7.28757213746212       -4.15128021841409
C            3.69798315638138       -7.73238735445093       -2.85145687013585
C            4.10992516493295       -6.92592513693781       -1.80423438482170
C            3.99303293604491       -7.45305440549509       -0.39745862596771
O            4.45129332129206       -8.58558514454127       -0.18917554639642
O            3.43611551956520       -6.72956315845991        0.44006256192849
C            6.24646669067111       -5.07874171970427       -0.23843500496620
C            6.96287056185725       -6.27872602067149       -0.45044923953787
C            8.05482295019687       -6.59362828344033        0.29390177352060
C            8.52201298109878       -5.72592310070631        1.31010448262570
N            9.64012563952371       -6.05261933756030        2.07813256226353
C           10.10628389559186       -5.18959593721041        3.16458013433084
C           10.40574747552557       -7.27698180809420        1.83945573562703
C            7.83280145301154       -4.53721703247040        1.51588986727577
C            6.71056842337483       -4.18534400490116        0.76623919502770
O            6.09560426427232       -2.97859279332451        1.02148659121069
C            4.98933900313090       -2.64667085410925        0.26937069809162
C            4.34963216769365       -1.43246965682616        0.51733976561282
H            0.98495207961163        1.53037661792147       -0.18977477036012
H            0.60124709488720       -0.16667557404363       -0.46032534557878
H            1.55634634189639        0.73185354944755       -1.65559201086033
H            2.57868749733334        2.05783903204968        1.08205309268836
H            4.17649497533401        1.35938472904512        0.83889168758512
H            3.08945325818121        0.68789554088797        2.06989308030041
H            1.83881181259223       -1.61321284430666       -1.73323801133413
H            2.91186590251084       -3.73787363179203       -2.20084502469358
H            5.02583510808166       -4.22828990794897       -3.63136072023172
H            3.42716012395117       -7.91772314656314       -4.96159410559219
H            3.32894273593784       -8.71937756664125       -2.62984760998764
H            6.62214755456418       -6.95579896763812       -1.21393420308444
H            8.57024510463509       -7.52047833054612        0.11610579199511
H            9.30030853533904       -5.01382939571637        3.87439682487184
H           10.44390905634893       -4.23555924538253        2.76442761032702
H           10.93407566180622       -5.64594708555475        3.70319394984905
H            9.78425247035102       -8.14909694243485        2.03427029736775
H           11.27865402058569       -7.32803924557073        2.48710521597189
H           10.75007361367350       -7.30730306779932        0.80724990742250
H            8.16357696928575       -3.84787668356951        2.26844855861615
H            4.75480612596846       -0.80526568684000        1.28762863901446
