49
 energy: -8.327280555973 gnorm: 0.000618449787 xtb: 6.5.0 (97a52f5)
C            1.29715442426221       -0.59370944867836        0.34581134964214
N            2.56862345758492        0.03328189987846       -0.01869250202490
C            3.13631502464697       -0.34358992998652       -1.31470326825386
C            3.20899448657916        0.93663404176195        0.82623276292676
C            2.67630219424612        1.24833980308441        2.10114404747571
C            3.30284646348420        2.12160558725855        2.92919623033322
C            4.51156707494350        2.75425814808917        2.55527214528222
C            5.17432924154556        3.66888390117740        3.39963216097517
C            4.63581261386615        3.99106515052354        4.74469450002105
C            4.57780843819660        3.01814902736905        5.74596276676420
C            4.07462251577200        3.32108591985158        6.99294733087679
C            3.62192310706936        4.59352058400906        7.26373457916912
Br           2.93343242197465        5.00073529498525        8.96864573348218
C            3.67034602417212        5.56914905476374        6.29253371258688
C            4.17237811598069        5.27514357030637        5.04297545725840
C            6.36262392110783        4.26848999525209        2.93388381404752
C            7.10906680014655        5.17539005434016        3.72241763827069
C            8.25445892738897        5.73722835045098        3.26077061000834
C            8.74991396707251        5.43456422714877        1.96874299896148
N            9.92443545342116        6.01543818773319        1.49594625548816
C           10.50748221607216        5.63878484967255        0.20708345741198
C           10.64237091329972        7.03627383629363        2.26059818100818
C            8.03138514566849        4.53686446587789        1.19150781178379
C            6.85315656401058        3.94056882977508        1.63908031389794
O            6.20877262647022        3.05169157605695        0.81234494415588
C            5.05369911864272        2.46552457210546        1.27198368516501
C            4.38893764078049        1.56041783632531        0.44555735872777
H            0.91419110726128       -1.20532450202612       -0.46739572164280
H            0.55692116674045        0.17109585034751        0.56952202370855
H            1.43427774754413       -1.22944823144489        1.21768551325122
H            2.53901760059945       -1.11449305239216       -1.79532091747251
H            4.14309001946417       -0.73232594140886       -1.17982522995025
H            3.16908960823922        0.52302019183666       -1.97106487296652
H            1.76200319990933        0.78005052342432        2.41758382942773
H            2.87538779581430        2.34821695246980        3.88961751660472
H            4.94209044165689        2.02804604970882        5.53334580214571
H            4.03067884145172        2.57147026471675        7.76617633806032
H            3.30997075495764        6.55867182712138        6.52245186287868
H            4.20238273946696        6.03147999684480        4.27803022691993
H            6.75867042705074        5.41091043779856        4.71143846705998
H            8.80428709858678        6.41456059477684        3.88856841560105
H           10.61678361065771        4.55838875705720        0.14908075151759
H           11.49222247239207        6.08200992741052        0.07976345254414
H            9.86729500233761        5.98094372683475       -0.60309891817446
H            9.95843677972573        7.82702455678653        2.55978132221693
H           11.43268381009242        7.48573356017019        1.66480853113912
H           11.08844803153332        6.59024484902089        3.14639132544553
H            8.37280919017194        4.28193254987053        0.20737638761883
H            4.81811365594144        1.36120172565166       -0.51688018137350
