34
 energy: -7.148181060927 gnorm: 0.000888271366 xtb: 6.5.0 (97a52f5)
C           -2.78891390631094       -1.43984220978464        0.17162774663620
C           -1.42917737338177       -1.49544738297468        0.11540136306804
N           -0.64148483889984       -0.38573686429021        0.03301040354275
B           -1.33848497187537        0.90418584380726        0.04318543956967
C           -0.50689883003081        2.17344245761441        0.16186709346219
C            0.82196058616356        2.07144903281772        0.14441174754168
C            1.49366946738739        0.81131296062195        0.02649142236503
C            2.89589598014855        0.77411392821261       -0.02548139156367
C            3.56684925902322       -0.41309504346616       -0.14074621701682
C            2.85660745922106       -1.60320774093080       -0.20874078185959
C            1.48680167567922       -1.59344500817082       -0.15714803824679
C            0.77047608762690       -0.39731785084958       -0.03324692033099
C           -2.85687019741311        0.96953284832386        0.04803351269064
C           -3.57265667839792        2.24730694085940       -0.00728669402664
C           -3.26369650494049        3.19668301759191       -0.98134076293743
C           -3.93069966627346        4.40102661255932       -1.02853335935194
C           -4.92167731297630        4.67989855295022       -0.10836585576526
C           -5.24786563234858        3.74861781479086        0.85764835076906
C           -4.58286119752965        2.54312722704480        0.90826492751957
C           -3.48702006462220       -0.23731758217104        0.13499999489364
H           -3.34702560343241       -2.35985677286675        0.24129247404737
H           -0.95016698583440       -2.45602551915690        0.15498300066719
H           -1.01637366044305        3.11111673740670        0.26494538690835
H            1.42456676022338        2.96103731154559        0.21787896912410
H            3.44334565738100        1.69985787818772        0.02466867655215
H            4.64384419726365       -0.42519672288494       -0.18139110640449
H            3.38529263753626       -2.53771839691802       -0.30444307440521
H            0.95793140214593       -2.52618072442040       -0.22525032126769
H           -2.49995743817125        2.96974964170869       -1.70532009231833
H           -3.67817670428270        5.12581180975126       -1.78531257796092
H           -5.44180569276380        5.62324863367291       -0.14535709469696
H           -6.02309583696459        3.96532931065546        1.57462981210654
H           -4.82866059216416        1.81930066843273        1.66623906681030
H           -4.56368148074260       -0.25160140967040        0.16045489987726
