30
 energy: -6.079090121188 gnorm: 0.000517164185 xtb: 6.5.0 (97a52f5)
C            1.16699560532828        0.04382475755589        0.49774803345523
N            2.50377487415885       -0.05525404374670       -0.08867013698482
C            3.05414890932917       -1.40225618386341       -0.24168149295486
C            3.22262469044284        1.08307544084440       -0.48547618465042
C            2.74209052046011        2.37531156325360       -0.19744171041291
C            3.43126025915497        3.50471811797725       -0.57230492106013
C            4.62945882209164        3.36187720795387       -1.25348024502694
C            5.12952328461499        2.08761015601888       -1.55385134847053
C            4.43607499161691        0.95610369814184       -1.17433585165834
C            6.39382800412882        2.24836690579995       -2.27656586601556
C            7.27845092113329        1.31656413356229       -2.79753370964279
C            8.41173752797673        1.76738006802301       -3.44581859237650
C            8.66515701321746        3.12603553223091       -3.57565543709703
C            7.78949480243023        4.06113887755398       -3.05932771000515
C            6.65230649192678        3.61681329065079       -2.40983700627428
C            5.55905066393347        4.37428324085935       -1.77079943570155
O            5.45290016078533        5.58182712624772       -1.68854592000429
H            0.69732409838293       -0.93503728427306        0.56651627346107
H            0.53354398859941        0.67619725985747       -0.12097420033812
H            1.22909731562648        0.46805879219596        1.49788836346230
H            2.45071365068055       -2.13354872404609        0.29184555643370
H            4.06334676333496       -1.44180515463574        0.16342958950126
H            3.07997094358571       -1.67669462617403       -1.29437102005025
H            1.81664363910251        2.48051688812829        0.33930630895002
H            3.06105892679332        4.48973276759755       -0.34852739898590
H            4.82736644106876       -0.01186842255925       -1.42207348165136
H            7.07517612677156        0.26543878652021       -2.69370448630230
H            9.10787615109656        1.05484387323693       -3.85646889973135
H            9.55559313079826        3.45561258847987       -4.08520164430421
H            7.97330128142984        5.11697336660960       -3.15253742556326
