24
 energy: -4.761485259126 gnorm: 0.000633188049 xtb: 6.5.0 (97a52f5)
C            1.17970373407131        0.02050233758670       -0.52914790571754
N            2.56518720517333        0.01224245747030       -0.05934602343804
C            3.14913915253952        1.31260167570101        0.27145752204570
C            3.29621832647048       -1.18163350277590        0.06365960595206
C            4.55181386443995       -1.19656404841232        0.70134843077584
C            5.28420151356789       -2.35268510743590        0.83319017499887
C            4.76481176250761       -3.53031887218910        0.32117223187971
C            3.52524582095752       -3.53789017670068       -0.31396988399913
C            2.78844417028862       -2.38246403821934       -0.44599658730362
C            3.24381236375910       -4.91931000494151       -0.74967850663377
O            2.24982825750921       -5.29463628720634       -1.33542826473469
N            4.33992546105482       -5.67343733274613       -0.34906144549666
C            5.29479674128315       -4.90125737811037        0.30470289026541
O            6.35419236164173       -5.26799547639871        0.77229609162546
H            0.70424643506839        0.97484207802681       -0.31377901504159
H            0.61009917069479       -0.75757314616346       -0.02544956104729
H            1.15197034251142       -0.14838548926107       -1.60357778096707
H            2.53974850361229        2.12186554110973       -0.12479833604737
H            4.14187933837109        1.39833335187664       -0.16532247782964
H            3.21724375724254        1.42457956414877        1.35155124091070
H            4.94182909696938       -0.28156147486114        1.10931955971614
H            6.24157476500776       -2.36187635450180        1.32481583200122
H            1.84243820953078       -2.41811991081391       -0.95221084968187
H            4.43056964572915       -6.66456840518872       -0.50626694223142
