30
 energy: -6.077863420841 gnorm: 0.000486242813 xtb: 6.5.0 (97a52f5)
C            1.25590888002248       -0.26875920317633        0.50588859239238
N            2.59830593230715        0.09780009814446        0.05498271202897
C            3.25749928137210       -0.83334087089470       -0.86085835508770
C            3.23009545721577        1.27223599660485        0.49725140783568
C            4.45764771256591        1.68336668050717       -0.05575052977987
C            5.09822170875497        2.82515698240168        0.36614617191955
C            4.51548928458350        3.59267342357118        1.36684143676740
C            3.29207746608604        3.20043453333894        1.92572168669018
C            2.65170307252907        2.05743286705999        1.50257994411496
C            2.90598897824879        4.17659614760290        2.96232552138632
O            1.90648216817337        4.15988438412816        3.65015734230463
C            3.99199604083306        5.17266178840082        2.98401051795602
C            4.15746890103887        6.29968837024716        3.76860202310130
C            5.28874262210058        7.07084138700844        3.58930042867024
C            6.24358943545169        6.72420642556367        2.64204460074343
C            6.08638493396554        5.60082983135678        1.85561787485434
C            4.95188612238488        4.81906688420150        2.02700400711268
H            0.85092840885438       -1.07923231421175       -0.09674854690541
H            0.58455063170618        0.58303945868638        0.41504162045029
H            1.28710791558581       -0.59092683480084        1.54508067413150
H            2.72169835693398       -1.77916947784522       -0.90627780469706
H            4.27032465727389       -1.03953728464140       -0.52056906508397
H            3.29513699844319       -0.40808838325909       -1.86184969683172
H            4.90037873071454        1.09330148356870       -0.83768901977394
H            6.03661283682943        3.12870963244833       -0.06299804546116
H            1.72407675622669        1.77417748126791        1.96214003754362
H            3.41130988362548        6.55542976417452        4.50010921907722
H            5.43283290443319        7.95172767945373        4.19300384857618
H            7.11941134143448        7.33989692288517        2.51996209159144
H            6.82273258030676        5.32577614620838        1.12145930437265
