33
 energy: -6.019203646294 gnorm: 0.000643990302 xtb: 6.5.0 (97a52f5)
C            1.11660520303343       -0.60124781264863        0.41969844535526
N            2.34769741541755        0.05123501945703       -0.02525265907740
C            2.89513945161183       -0.38755898265616       -1.30996968993821
C            2.98665849261608        1.02901239730882        0.75190700565157
C            2.54193328253575        1.33381559931861        2.04203869035084
C            3.17771776903754        2.28492966571327        2.79472915393273
C            4.28628430771753        2.97875040149305        2.29827697123458
C            4.75074917703454        2.69036427574760        1.00160452972170
C            4.09535737460129        1.72892228371339        0.26109628645137
C            5.95975690682108        3.42396731826411        0.39947293318234
C            7.05201191883755        2.40632129643593        0.04178703078936
C            5.52067641141887        4.18957548187483       -0.85630152474933
C            6.58741941383256        4.45030759484964        1.36656938674597
O            7.56646617240203        5.07227932759081        1.00799988213853
C            6.00614078252460        4.65743679826649        2.67582228751208
C            4.93824914890225        3.97344567850479        3.10724905291135
H            0.66909858796971       -1.18135851432793       -0.38435866238814
H            0.39090846012267        0.14444910714016        0.73800810859475
H            1.32979976693646       -1.27040278910038        1.25087790235509
H            2.37138997935334       -1.26713686083513       -1.67846819241449
H            3.94646974553882       -0.64567668951242       -1.19998292823370
H            2.79757728880765        0.40583518390900       -2.04837491386274
H            1.69867633480572        0.80621801724278        2.45035091433864
H            2.82649090124612        2.50771491138475        3.78779077147338
H            4.44188880354615        1.51487292506674       -0.73221483042943
H            6.70690925211337        1.69555913302491       -0.70747869600007
H            7.35629552662988        1.84704918629497        0.92567481398857
H            7.93116440758848        2.91369604368114       -0.35316416326638
H            5.13736732878366        3.51588175423745       -1.62111812901342
H            6.35925438880217        4.74077857751982       -1.27974738767760
H            4.73758198308168        4.90598040732511       -0.61171687478302
H            6.47114790809414        5.39325870712728        3.30692167729239
H            4.54334610823645        4.16241455658728        4.09079280781342
