37
 energy: -7.410451426419 gnorm: 0.000985767559 xtb: 6.5.0 (97a52f5)
C            1.19528026757793        0.50251262975974        0.22536525803611
N            2.52845618003588        0.01692355772070       -0.12835504922111
C            2.99632320378807       -1.17935415801183        0.57115198208269
C            3.33564691426557        0.68785192376335       -1.06737012398826
C            2.97448033752299        1.94518247910581       -1.56279449802607
C            3.77236115558117        2.60085971572996       -2.46477056418641
C            4.95850683020674        2.02545439643482       -2.91496539036418
C            5.33750788523051        0.77065232113845       -2.43175669600597
C            4.53155752949739        0.12150737316068       -1.52248955147321
C            6.64012249576290        0.18532628532108       -2.88129558308559
O            7.11381985801312        0.65729828428995       -4.15027398048984
C            6.85829244823012        2.00634558905487       -4.43070499075089
C            5.80873560220496        2.70618221185008       -3.86310515040259
O            5.52171444185724        4.03113030311942       -4.16273752920947
C            6.34435258711312        4.69124917189724       -5.05386761839593
C            6.08863877708148        6.03559576487553       -5.35830556223846
C            6.88562574170685        6.72243374308866       -6.23419859849320
C            7.96592727261074        6.09235492863443       -6.83829217283114
C            8.23685718111786        4.77743947724543       -6.55922161046195
C            7.44014732703288        4.05907600582997       -5.67166397078919
C            7.72505645367178        2.66824186837231       -5.37487329841197
O            8.66621375830959        2.07947926576326       -5.90157384211945
H            0.63745711745794       -0.25902169528887        0.76589933379471
H            0.63726683251674        0.75046263526865       -0.67415036378257
H            1.27623421215209        1.38640331655109        0.85341711357644
H            2.36809170465257       -1.39388956724359        1.43283648297033
H            4.01306879125543       -1.02994977837363        0.92847799093538
H            2.97287832204873       -2.03532095570376       -0.10012448816457
H            2.06806240882554        2.40938299299258       -1.21803386040470
H            3.49630047275916        3.57158810922440       -2.83938403195959
H            4.83286198474531       -0.84353194705014       -1.15977477834262
H            6.55957253791057       -0.90525908758144       -2.95747897890624
H            7.42183270822940        0.40147621222643       -2.14466659595491
H            5.25027722683446        6.51464835007029       -4.88467727650996
H            6.67538235428939        7.75565376877655       -6.45636498410657
H            8.59120990045912        6.63809103074117       -7.52558202049009
H            9.07135917744620        4.27838347724667       -7.02120500182938
