31
 energy: -6.043962372920 gnorm: 0.000603385617 xtb: 6.5.0 (97a52f5)
C            1.19088944729226       -0.41164649434907       -0.27728812076766
N            2.56442716805719        0.01847561012114       -0.01330408383440
C            3.09342768886209        1.08411492114413       -0.86480603455108
C            3.33748902749363       -0.55903804966258        1.01240166132890
C            2.87845131822577       -1.69037637315633        1.70902493509682
C            3.61878736061280       -2.27265944493265        2.71178035098473
C            4.85268402888344       -1.72452608306491        3.04367078678901
C            5.32710890930873       -0.59598792734576        2.36243653381727
C            4.58434212700065       -0.01834802347934        1.35916916114892
C            6.67455656188725       -0.21995164861989        2.92528365714897
C            6.93084266271698       -1.24823416556871        3.99805922547553
C            8.00260354677791       -1.40997335181005        4.85306123640992
C            7.98321559174937       -2.45511592450420        5.76075730656718
C            6.90648923080309       -3.32813003960235        5.81499393395582
C            5.82973900696826       -3.17451364362902        4.96479355267039
C            5.84236943460435       -2.12760652197422        4.05101644345606
H            0.68490475480570        0.28429297165467       -0.94447730143177
H            0.62465283693989       -0.45406212603995        0.65197976173666
H            1.18978984114784       -1.39709481039015       -0.74094964621913
H            2.44732507502489        1.25482096228759       -1.72400004317844
H            4.07981589479470        0.81273807172819       -1.23746621071608
H            3.16955896774487        2.01209312735003       -0.30038470332116
H            1.92914466595098       -2.11872079316706        1.44117010236543
H            3.26039195843693       -3.14082506611036        3.23666744022486
H            4.96286539407259        0.85097439502150        0.85529709420430
H            6.65758584940870        0.79162130503374        3.34536526497517
H            7.44900519236126       -0.25640437001892        2.15116321256729
H            8.83394369432896       -0.72821011499533        4.80526047763914
H            8.81440126485763       -2.59106878148178        6.43338896385134
H            6.91009053949527       -4.13553832464708        6.52915251360229
H            4.99028095938216       -3.84658928579354        5.00018252800211
