36
 energy: -6.613927905162 gnorm: 0.000662467686 xtb: 6.5.0 (97a52f5)
C            1.27417367507034       -0.80064828229794       -0.28154559213549
C            2.40712259151917       -0.15145634110200        0.05950404924595
N            3.13857484190488       -0.52212775411622        1.16872562402480
C            4.34543167809539        0.23953742714940        1.47103371673723
N            5.07845393303376       -0.27414214490237        2.62303220207401
C            6.26652819799258        0.34314828476150        2.95488600367173
C            6.99813385997126       -0.06715308662720        4.01204444242687
C            6.54814974965195       -1.15093414393191        4.81081461736318
C            7.27686815553061       -1.61379218298727        5.91680307142937
C            6.81542534465706       -2.66039621268261        6.66737379251304
C            5.61373478134694       -3.28036929653852        6.34334244665039
C            4.88475637280855       -2.84975367967634        5.26942997996992
C            5.33112667684398       -1.78249661917488        4.48013611244062
C            4.57613562252211       -1.33023757362615        3.34363416902675
N            3.44265005933195       -1.96674860091606        3.05134609229085
C            2.76146642777753       -1.56523979852520        1.97914199866939
C            1.55690588404464       -2.27265262984465        1.64029851352776
C            1.10639230657304       -3.34981166252581        2.41358708367606
C           -0.03797032217723       -4.02072322535643        2.08168191026277
C           -0.77391388817344       -3.63962528370780        0.96517090393022
C           -0.35919988153050       -2.59174190274142        0.18953647487796
C            0.81211818776287       -1.88750651921822        0.50622163181037
H            0.71179734835306       -0.50326568730737       -1.14959665164672
H            2.76518481164358        0.67444289611617       -0.53087154359842
H            4.06681332547652        1.27839457788273        1.66600445576122
H            5.00273524591109        0.22127247209438        0.59796636254037
H            6.59646804010838        1.16697658331516        2.34559097864152
H            7.92421580896741        0.42113325562553        4.26063909421744
H            8.20754144256922       -1.13530692532129        6.16845677851859
H            7.38500954549414       -3.00785039665744        7.51390709421377
H            5.25775499732969       -4.10361916780424        6.94114360244312
H            3.95474880999402       -3.32570004516458        5.01312023892546
H            1.68131133515068       -3.64032094803301        3.27529114623966
H           -0.37144194343231       -4.84871450514688        2.68563134471207
H           -1.67493967055416       -4.17357549350323        0.71117254454896
H           -0.92901335156898       -2.29905538750700       -0.67558469000100
