59
 energy: -10.119899476319 gnorm: 0.000760648681 xtb: 6.5.0 (97a52f5)
C            0.89361264160675        1.13059714726987       -0.35746876315800
N            2.06020253752777        0.25236364821890       -0.23968064736858
C            2.37160203578983       -0.23080239270854        1.10760908041943
C            2.81132681020253       -0.11085148579592       -1.33444262375002
C            2.51453899513860        0.37116608234750       -2.62596368281172
C            3.26112142679223        0.00493379898816       -3.70380678647075
C            4.36725823821963       -0.87561032641400       -3.58986037197581
C            4.65635025504828       -1.35165717802557       -2.28965346036300
C            3.91343079748678       -0.98436594838659       -1.21072530790182
Si           6.07556236848548       -2.48548428010149       -1.99322966389395
C            7.35644279565351       -1.63885255317738       -0.91646296719740
C            5.47282886012774       -4.09544456164097       -1.24229550418559
C            6.76400665538801       -2.78558909469467       -3.67381462413879
C            7.81494590467550       -3.64347884999188       -3.77607463563353
C            8.42707572239860       -3.91833883404480       -5.01820735507125
N            9.48406004248875       -4.79479921135916       -5.11624438640455
C            9.98849849109991       -5.53262541060588       -3.95605795986160
C           10.16604830337838       -5.04923264170892       -6.38735527458580
C            7.90700487031491       -3.25991892158875       -6.15156014534813
C            6.85483760264743       -2.40251997474842       -6.04741582869053
C            6.22839413970086       -2.12626177415680       -4.80503308199962
C            5.11575336711550       -1.22776409346704       -4.75747605701940
C            4.72152861519544       -0.64857418177695       -5.95816060757169
C            4.38123694678769       -0.13020863949797       -7.01658852158710
C            3.99895600593279        0.46784627545604       -8.22657432222161
C            3.65866714507055       -0.31005584719357       -9.32887436550931
C            3.28570887985431        0.27940862725811      -10.51688386832663
C            3.24630499150367        1.65405293519456      -10.62467748576846
C            3.58068640103598        2.43940953189028       -9.54110373082936
C            3.95392957283918        1.85285061602721       -8.35181303256553
H            0.41808272808708        1.28601065186743        0.60817087156747
H            0.16115922292943        0.68593310851871       -1.02798978409817
H            1.19550528964824        2.10007029114324       -0.74829604038360
H            1.69142843737828        0.18967642810697        1.84448764657064
H            3.38495020466740        0.05606520309414        1.38023490080631
H            2.28443519451092       -1.31458615381883        1.14247355316296
H            1.68636318786592        1.04383315642552       -2.75734807291024
H            3.00821493384660        0.39186588996890       -4.67489355295235
H            4.17471076283948       -1.37404462074197       -0.24397706572120
H            6.93684761549483       -1.41122808736223        0.05874695058371
H            7.67523033979073       -0.71295806283029       -1.38577848370091
H            8.22173604059422       -2.28135950971751       -0.78482473759207
H            5.02852400790386       -3.91390153276972       -0.26843298207216
H            6.29994831169749       -4.78891021294103       -1.12498703442347
H            4.72659829888801       -4.54582742566997       -1.88997310889599
H            8.19003914048088       -4.11296462459675       -2.88520690321085
H            9.17704685551614       -6.08311854439161       -3.48435260301217
H           10.41949161266990       -4.84122177977319       -3.23478532916886
H           10.75469641570550       -6.24771841212228       -4.24698997049879
H           10.49988316339990       -4.11173980774946       -6.82696190134343
H            9.48865782283629       -5.54742074898579       -7.07790635364543
H           11.03914980437234       -5.68209174607539       -6.24507967709673
H            8.34583668381241       -3.44777467256094       -7.11474763034204
H            6.47928184422797       -1.92058378222434       -6.93247142336083
H            3.69084927169201       -1.38236482168727       -9.24062608653901
H            3.02459131287380       -0.33428078420215      -11.36322982757721
H            2.95460686319990        2.11400360219628      -11.55446135218959
H            3.55001121666605        3.51325787108557       -9.62500802152476
H            4.21648199690631        2.46213666590861       -7.50416999846046
