47
 energy: -7.074470733425 gnorm: 0.000583196029 xtb: 6.5.0 (97a52f5)
C            0.80925090355420        0.25694450538067        1.11972278727393
N            2.03178494474154        0.03278672217934        0.34745887701083
C            2.47537035826744       -1.35361989777309        0.19950186005865
C            2.74601782569585        1.09409936964120       -0.22175849393107
C            2.35268076285790        2.42763621007876       -0.02648841188634
C            3.05471060947337        3.46504555204845       -0.57535005370983
C            4.20885282607486        3.24356550674383       -1.36780602862084
C            4.58389994200478        1.89932292358044       -1.55713945794746
C            3.88867802138406        0.86244055486791       -1.00982430941751
Sn           6.22505466037990        1.42727964456163       -2.73733823719542
C            7.74489629743988        0.42301568020942       -1.61277424046808
C            5.64555298540397        0.33331293511471       -4.48387843635998
C            6.78623977075466        3.36958366392285       -3.20773369537062
C            7.88656504312688        3.52814114308960       -3.99626905385937
C            8.34198559233488        4.81120223510630       -4.35199771342469
N            9.46950317874055        4.98012437146393       -5.16566209110528
C           10.13814321836887        3.84432951377617       -5.80077778795535
C           10.05455768127189        6.29902336965761       -5.40773413511589
C            7.62262327895749        5.91313951954658       -3.86305216634982
C            6.51751213647561        5.74938925743281       -3.07434031550974
C            6.04837008948642        4.46200632637608       -2.71185704115048
C            4.89311523779177        4.36581679726034       -1.89715634990239
H            0.36273450429422       -0.68475834189638        1.42922203615633
H            0.08163048843366        0.79400851624977        0.51546643158354
H            1.03380320738345        0.83785411843751        2.01128551282771
H            1.84149641497709       -2.03138861916588        0.76586024118751
H            3.49387143146289       -1.45837341029369        0.56568775692422
H            2.43890439798952       -1.64539723677055       -0.84730955234796
H            1.48431146488027        2.63524017837589        0.57205074220042
H            2.73014641589753        4.47681265148963       -0.40488549200061
H            4.21823377162195       -0.14616277496114       -1.19103507069710
H            7.39245129663341       -0.54983138033077       -1.28291086102073
H            8.01311789223382        1.00901327197269       -0.73852128086129
H            8.63391131241535        0.28088160739284       -2.22029598469929
H            5.25478236706269       -0.64176912242816       -4.20803688519603
H            6.49772828184678        0.19095876767154       -5.14201144052762
H            4.87550623166295        0.87397708733288       -5.02644292923143
H            8.42081736634778        2.65749399300312       -4.33550526289159
H            9.40393665344540        3.18405618620208       -6.25649707952101
H           10.70996020371116        3.28920215255610       -5.06065758106491
H           10.81432708250876        4.18140662962680       -6.58289341099225
H           10.16449638463823        6.83672798350788       -4.46879815545279
H            9.41655679690104        6.87134241707273       -6.07764288931407
H           11.04008563006225        6.20906155277888       -5.85881799885838
H            7.94128309604348        6.90515131784227       -4.12703413590757
H            5.98516984049564        6.61377898587832       -2.71761265978674
H            4.45930210246429        5.31443756418738       -1.63093955557099
