54
 energy: -9.127628075727 gnorm: 0.000728626200 xtb: 6.5.0 (97a52f5)
C            2.03804635761441       -2.05672233070854       -1.95788404477763
N            3.08953332825332       -1.54570741120084       -1.07801755309671
C            3.09332190025905       -2.05109629177850        0.29543299506467
C            4.04728832283398       -0.61620238167356       -1.52929979307606
C            3.89157416229917        0.04681728880013       -2.75737216963644
C            4.82297173036762        0.94815776465545       -3.19250206724162
C            5.95835202628541        1.23419925505940       -2.42566282268034
C            6.93084117405389        2.16718530738871       -2.86955926773988
C            8.04662671631696        2.40776158775226       -2.05280073725114
C            8.19741097203228        1.71388604616305       -0.77746885043420
O            9.18410132919093        1.95756800145633       -0.09813149639894
O            7.23784042261681        0.81290324889925       -0.37208928836942
C            6.13776509161114        0.58027292436816       -1.18525397872489
C            5.17748329286884       -0.32934695216859       -0.76641242296038
C            9.00341482936341        3.31406339611482       -2.46944622791760
C            8.86301897992470        3.98386224554886       -3.68883006752001
C            9.80685199230996        4.91283433730909       -4.15386182604478
C            9.65015147468525        5.56202416752520       -5.35841174353368
C            8.51514557409515        5.28971414221221       -6.15648029758611
C            7.57438420435502        4.36750432704539       -5.69376600138269
C            7.71891155403434        3.70986220337274       -4.48440312356910
O            6.75213444007816        2.80369598712083       -4.07833478654085
N            8.34086139357773        5.93822437538942       -7.39256245222225
C            7.20688013367034        5.63338411239916       -8.28520313005504
C            7.39980080770909        4.33187316424077       -9.04403093022600
C            6.14321072078482        3.92492931105049       -9.76493113714293
O            5.15603237617286        3.72314880926759       -9.09218739751774
O            6.17595220717706        3.80962164571717      -11.11654784335279
C            9.35992423946506        6.86200027170266       -7.93263242752174
C           10.13722428222298        7.56494750809501       -6.82047876219842
C           10.68820352177637        6.54753249382204       -5.81025397206087
H            1.60134540651816       -2.96364528315056       -1.54588506442971
H            2.45305986324536       -2.29935489142926       -2.93372278028159
H            1.25427147048402       -1.31067386065709       -2.07055715238213
H            2.13513087551665       -2.50385399888773        0.54057177365849
H            3.26472083827360       -1.23408284301392        0.99309855523544
H            3.87354146361068       -2.80042645088395        0.41226578297964
H            3.01897780557367       -0.14459664913086       -3.35574708878548
H            4.70032791162799        1.45808053651568       -4.13358152704435
H            5.33987686269430       -0.82830648267201        0.16975362725168
H            9.85724378585880        3.49813147041597       -1.84236186805211
H           10.67435873127090        5.11852876749764       -3.55305462498678
H            6.70449074786460        4.13710847847281       -6.27771752577999
H            7.06257805439957        6.46209483384193       -8.98357371953614
H            6.29122536198912        5.59715339141124       -7.68944319082665
H            7.67628956147660        3.53412651488514       -8.34916053944187
H            8.23888338036735        4.42308729308426       -9.73814908674117
H            7.05087909253363        4.00969853800495      -11.49269343230343
H            8.86916163227901        7.59105838905795       -8.58577071848264
H           10.03710048433883        6.27752609429672       -8.56276622243875
H            9.47154182207556        8.26675472663302       -6.30327029951196
H           10.94933239991983        8.17384641596247       -7.24137555848499
H           11.10089103247672        7.06530374800433       -4.93514799220977
H           11.52464185761510        5.99638270679395       -6.25596772370953
