35
 energy: -6.617043334907 gnorm: 0.000391211325 xtb: 6.5.0 (97a52f5)
C            1.17357710177155        0.92143696784379        0.07224045362327
N            2.46056738520545        0.29372569782894       -0.22815892878599
C            2.91937736118952       -0.74745509147951        0.69247769615796
C            3.21013958564504        0.65877449170979       -1.35953539552741
C            2.76383736989338        1.68268549875502       -2.22949634111176
C            3.47404912782936        2.03784127125431       -3.33130092235851
C            4.69597225384466        1.39611116512183       -3.66220252584667
C            5.45703079575946        1.73967493082802       -4.81359727553238
C            6.66874457483808        1.09909650824364       -5.04299299758659
C            7.11281712396349        0.09422481338042       -4.16289860742355
C            6.38811096696270       -0.26350599448102       -3.07353915131141
C            5.16257933964335        0.37912672440039       -2.78843281721084
C            4.40492181372032        0.03154335723288       -1.65824651634063
C            7.53022903249399        1.44137317609595       -6.18998783567022
O            8.53801984431848        0.81438338912888       -6.43505850862518
C            7.13245854863888        2.60354053911273       -7.05851544134641
C            5.60865332556617        2.74405040480797       -7.16090372273484
C            4.94502843958021        2.78538593687822       -5.77255845102496
H            0.71611760026810        0.47777086022849        0.95404542083441
H            0.49057434645507        0.79111074812314       -0.76496468147314
H            1.31135396108565        1.98480249889864        0.25865715985334
H            2.24381986240841       -0.85068511968354        1.53892138367060
H            3.90590014482837       -0.49738031816439        1.07783447852990
H            2.96962887481333       -1.70456562710810        0.17698464630646
H            1.84344244315110        2.19170623158408       -2.00578868677392
H            3.11005006198564        2.83310529544451       -3.95677523641986
H            8.05063741597399       -0.38946280305763       -4.37561191396152
H            6.74232854346000       -1.03461821611685       -2.41143893697319
H            4.77213021027633       -0.74595818965215       -1.01541377752264
H            7.58206236410193        2.47266545445131       -8.04959567758815
H            7.56903006408004        3.51776341165461       -6.64315975399465
H            5.20595581528593        1.89740194699934       -7.73088787274824
H            5.34446650983708        3.63919002314539       -7.74120874874521
H            3.86137316169181        2.66352573591043       -5.88796983193856
H            5.08938462943377        3.77434428068484       -5.32252068239850
