35
 energy: -5.455917039266 gnorm: 0.000818441955 xtb: 6.5.0 (97a52f5)
C            1.38103921573248       -0.97906216838642       -1.00430799061361
N            2.47601311316939       -0.45626378781825       -0.18602427104466
C            2.54974579249127        0.99739595271489       -0.03248916502782
C            3.40833257917369       -1.30967255975753        0.42875318627494
C            3.35718540215157       -2.71160733316406        0.21930442366316
C            4.25707789831593       -3.54754210145685        0.79904366272288
C            5.28036121753567       -3.04271897650462        1.63741867548929
C            6.21128332664654       -3.85900164955648        2.23205919726715
C            7.19027348697466       -3.39107691340633        3.02699696518291
C            7.26962337351023       -1.99981291673730        3.26824700203970
C            6.37458166470237       -1.14620238047435        2.70259668308673
C            5.34784024330567       -1.64409300336922        1.86294447181184
C            4.40361897464650       -0.80631386197004        1.24821314864809
C            8.12875234751028       -4.26995484768739        3.60715327622524
C            8.17441114418379       -5.47776266982827        3.47154061194761
C            3.31222668830914      -10.28199917573814       -2.64059821765959
C            2.85502692432786       -9.13307605246626       -3.25055114328606
O            2.00948021875449       -8.33076656791711       -2.63977781004732
H            0.71351407819099       -0.18151484532993       -1.32369802232365
H            0.79663019331548       -1.69671647218561       -0.43171491117356
H            1.77839859724262       -1.46852542524240       -1.89145023971951
H            1.79181366115738        1.49561404433208       -0.63329652583448
H            3.52463539849317        1.35919731612783       -0.35368041675179
H            2.39395903833923        1.27172335525873        1.00905140392889
H            2.59230748929510       -3.11592870128034       -0.41906294406037
H            4.20699487011747       -4.60886551544440        0.62703615457191
H            8.05181722252706       -1.62622029372450        3.90675431602262
H            6.43772325770046       -0.08745649667252        2.88459432722386
H            4.46310253647571        0.25040918739750        1.42802741296254
H            8.26435876613128       -4.50090133829610        6.66205502559953
H            6.68202116676957       -6.31807243538075        4.35368685230447
H            9.66966270507484       -6.54984033679857        3.67794838040346
H            8.14137621547616       -6.08992188430482        1.66615069445629
H            4.53687009299655       -8.58973965111639        1.76005310848157
H            9.11496110001850       -9.72434949349131       -0.36783732335963
