52
 energy: -11.056461157532 gnorm: 0.000825807374 xtb: 6.5.0 (97a52f5)
C            0.77453609679886        0.33046861581480        0.29293359099576
N            2.16277512371404        0.40379913970268       -0.16401226329939
C            2.61522303385291       -0.65716658934205       -1.06411718529995
C            3.01898464418176        1.43405395552505        0.24733618971397
C            4.32629442540756        1.54182775140963       -0.26833558926718
C            5.16088037755059        2.54316301293131        0.13256749589787
C            4.74068668118898        3.49724690976522        1.07399987743663
C            5.57915473617076        4.53564553913103        1.52130223207608
C            5.15617718170540        5.43564712379850        2.45154646067694
C            6.05162854938623        6.52404319244301        2.91244066374021
C            6.44910705048378        7.49337665517099        1.91485565048203
C            7.28293456365457        8.53872821386141        2.07128322096932
C            7.63940417541587        9.45314600534322        1.02487265096406
C            7.19540778607498        9.46251423792646       -0.28740178211574
N            7.78134808715013       10.50313773040895       -0.96112224352137
C            7.57647224179806       10.84963751820273       -2.36475122619903
C            8.62867674233108       11.19178580357228       -0.08737602358042
C            9.45172825856905       12.30819630425136       -0.26271547381564
C           10.17728356132040       12.76199104961184        0.80778865425784
C           10.10197885198776       12.12788840084303        2.05534820248846
C            9.30134470054541       11.03254073750817        2.24384220705762
C            8.55213429248886       10.55283993274928        1.16052362589915
C            6.47392100065661        6.55222796942430        4.23219240345820
C            6.14692016788555        5.52778729004343        5.10783755321833
N            5.90972092017959        4.66002193451434        5.84816033088407
C            7.28623520486426        7.53612783074392        4.76848827518784
N            7.97685374828176        8.36869538700412        5.20155403650899
C            3.77652587401731        5.34937501410740        2.95717587316624
O            3.37990560018854        6.20871352040193        3.73082039512784
O            2.95784960718941        4.32310785660482        2.53208908311870
C            3.43526963467580        3.41056075075253        1.60440251261018
C            2.60410400136591        2.38040844912010        1.17768069862197
H            0.23396998075082       -0.45976803001091       -0.22302314038973
H            0.26628080180345        1.27120843719549        0.09174690474924
H            0.74562078996445        0.12615845585999        1.36117577724899
H            1.85665218322580       -1.42911554154832       -1.17223199903475
H            3.51408966541138       -1.12378277984482       -0.66644787818823
H            2.82745337280781       -0.24442319001793       -2.04824740359904
H            4.66723547087806        0.82591187829180       -0.99425628214218
H            6.15703721594867        2.61193036331682       -0.26953091368731
H            6.57977297127306        4.60710593627630        1.13523260597028
H            6.02556182994252        7.34398238465722        0.93762127646322
H            7.72745813179427        8.72332328531512        3.02908102589823
H            6.49936397696719        8.77197099013348       -0.73016336163165
H            6.79694335272870       10.22536088973329       -2.79592864975866
H            8.49865179397376       10.69626138235284       -2.92093551457441
H            7.27747274564851       11.89216820883568       -2.44897497182293
H            9.50626538536625       12.78999375432226       -1.22238098773891
H           10.81773899590732       13.62069343040503        0.68970555838431
H           10.68414632147644       12.50910269222816        2.87810114658732
H            9.23997053280743       10.54024453920956        3.19775815288614
H            1.61809756021066        2.32942566994083        1.59731855690495
