52
 energy: -9.294899072025 gnorm: 0.000666514983 xtb: 6.5.0 (97a52f5)
C            0.56277593341995       -0.61916118677903       -0.22358834776104
C            0.60564153519048        0.43609412797163       -1.06819882457683
N            1.70769696506458        0.64033168440621       -1.88869847564285
C            1.69948277934774        1.77792182693461       -2.79825018365858
N            2.93514007292900        1.92045388441825       -3.55487191652145
C            3.07263918062656        3.00376338896990       -4.41373954712997
C            4.19843609926937        3.16367522854680       -5.14605842675173
C            5.23685397161023        2.23117054016726       -5.04624669406990
C            5.13736500366060        1.13677926002023       -4.20295870364693
O            6.13213804770891        0.16413625570285       -4.05090397709538
C            7.18911226477842        0.20076525150357       -5.00660476167529
C            8.06785868105511       -1.00869325047779       -4.91514739081371
C            9.26127815155301       -1.07954382765602       -5.61309793456602
C           10.05265380687647       -2.20551327294082       -5.52965105111856
C            9.65744850582245       -3.27250883259457       -4.75156581566376
C            8.46924950900789       -3.21324806174177       -4.05592938759280
C            7.68039673916951       -2.08626345395133       -4.14046301147126
C            3.96002738819074        0.96856141508432       -3.42211164834209
N            3.89747483436572       -0.08735462758668       -2.60925960273446
C            2.80390666275134       -0.23929729081911       -1.86095831259705
C            2.75117203579503       -1.35296635449587       -0.97633420292281
O            3.85572679332928       -2.21321328568016       -0.97660864336606
C            3.76900787565717       -3.34165353184248       -0.10857548314378
C            3.84896527878669       -2.99011568788822        1.34484670215713
C            3.28184658053405       -3.80675104760121        2.30889041109291
C            3.36921066055393       -3.47585235140025        3.64414417139290
C            4.02846318059074       -2.32869551299806        4.03002777413928
C            4.60379500326833       -1.51410663483386        3.07907689251871
C            4.51631632873127       -1.84735617039731        1.74466985225846
C            1.63331623719611       -1.51796541256128       -0.17475772594599
H           -0.29312569767123       -0.76971008093563        0.41371902131879
H           -0.20822244281123        1.13769310322712       -1.12254794336654
H            1.53143002823824        2.69054089496404       -2.22137120137849
H            0.86825777097040        1.66331669822952       -3.49824348677452
H            2.26254456033073        3.70877787141911       -4.47977819111976
H            4.29903287278320        4.00836921096940       -5.80722786916190
H            6.12867226993543        2.37914898800670       -5.62639220617823
H            7.77543081709835        1.10774945783844       -4.82548200150640
H            6.74481361010514        0.25985152340775       -6.00582326580028
H            9.56608451632605       -0.24639761700422       -6.22245089312242
H           10.98141501847031       -2.25145194244237       -6.07427400017548
H           10.27700689042366       -4.15200300901457       -4.68699820377617
H            8.15683320737540       -4.04585976586026       -3.44755303366474
H            6.75104962094756       -2.02059264003010       -3.60039889388525
H            4.60491295261871       -3.99874168179202       -0.37252683610709
H            2.84953909166820       -3.88768389472454       -0.34403344952534
H            2.77149204620080       -4.70492072280180        2.00656866793767
H            2.92267520654970       -4.11593849258545        4.38730400883779
H            4.09652309322841       -2.07072877266460        5.07399660681090
H            5.12207838584906       -0.61789926846610        3.37793166583226
H            4.95862231193153       -1.21722069631971        0.99223201208719
H            1.59012776257637       -2.34009223289338        0.51442375796974
