40
 energy: -8.273778278620 gnorm: 0.000841210149 xtb: 6.5.0 (97a52f5)
C            1.10097206893353        0.19901507830146        0.23666247766869
N            2.40307291208178       -0.29274056172782       -0.21338096639579
C            2.84663015945051       -1.57724751534230        0.32850313446442
C            3.17745115878917        0.42412521800678       -1.14047192173208
C            2.77657891569850        1.69853533851595       -1.60154110215796
C            3.52643177734933        2.39271613908061       -2.50161797576492
C            4.73186313324103        1.86040181624185       -3.00379257057202
C            5.53604884082009        2.55474699621587       -3.93619265543261
C            6.69243359515477        2.01117319295170       -4.39394891290297
C            7.13662438516249        0.73911196660683       -3.96082681197488
O            8.31424096753162        0.24434831863890       -4.45199835618088
C            8.70769616611258       -0.99439093662218       -4.00935019339433
O            9.74315098887072       -1.50643374982550       -4.41919887605841
C            7.87010940064645       -1.70629292499426       -3.04017053686499
C            8.24962727989780       -3.02619419835083       -2.52678630836180
C            9.46718714908892       -3.64501963026702       -2.80866354280941
C            9.77614814405857       -4.88154674279600       -2.29043125473824
C            8.87481109551508       -5.53510327333877       -1.47528460778248
C            7.66320768781368       -4.94416747442268       -1.18088413882191
C            7.35700758179458       -3.70650888407911       -1.69853233203520
N            6.74623028396658       -1.20803489225685       -2.59060403004645
C            6.37040571844430        0.01513033588407       -3.04277775587969
C            5.14870246929811        0.58695114806843       -2.55436939823812
C            4.35991355249583       -0.10175253729086       -1.63121410166921
H            0.58648194426458       -0.54816506548110        0.83678550441500
H            0.47357156078693        0.43158750549570       -0.62123776498048
H            1.23059284305304        1.09518374579184        0.83994625385767
H            2.19448153675708       -1.90780509224207        1.13383283277908
H            3.85383125131312       -1.48599549024880        0.72974091041684
H            2.83861391909563       -2.33329395242275       -0.45391688889812
H            1.86553606032671        2.12894254202601       -1.22659857563989
H            3.20610096771479        3.36299225493334       -2.83966747703268
H            5.21865830647163        3.52446047214761       -4.27815742267565
H            7.30349678527839        2.54181516658465       -5.10221997838891
H           10.17251504699680       -3.14318798322748       -3.44428025331103
H           10.72273229611628       -5.34152185438934       -2.52259559856312
H            9.11539823327587       -6.50454502338008       -1.07079460274587
H            6.95581335995174       -5.45177531267549       -0.54586944923323
H            6.41283469541164       -3.24401160705424       -1.47130698540332
H            4.69259576097429       -1.06858253306235       -1.30783776691564
