47
 energy: -9.518908492920 gnorm: 0.000840013090 xtb: 6.5.0 (97a52f5)
C            1.81783882741603        0.78300877210728        1.11766823936149
N            2.51131838160748        0.09262516696349        0.03031723025853
C            2.43360406378446       -1.36817146430899        0.02246046683701
C            3.22389429293209        0.79951734936675       -0.96028420842283
C            3.45119758596899        2.18694281070087       -0.83767995453976
C            4.13628659524572        2.89129703292069       -1.79025047150795
C            4.63135915051980        2.22977680724582       -2.92572763963149
N            5.33998589910486        2.81725201553829       -3.95746594335515
C            5.66222311733245        1.95029207060124       -4.87830697228934
C            6.40086828356371        2.29171889453929       -6.07269039451382
C            6.85448098929503        3.59856013535643       -6.27609101014093
C            7.55456539480011        3.93467671527873       -7.40630857751423
C            7.82973253323539        2.97330104022053       -8.38897747553100
C            8.55118254022252        3.31600511632741       -9.57532404935077
N            8.79827611528272        2.47622817791711      -10.52457966656466
N            9.46242153940885        2.83512635392468      -11.62581543308736
C            9.73945617128930        1.97771831179076      -12.70440050020235
C           10.44779913717007        2.42552846527847      -13.81687539783728
C           10.70781724089761        1.57232904804994      -14.86611211789591
C           10.26683797580470        0.26333317573385      -14.82221885829931
C            9.56312001784270       -0.19203636162502      -13.72359817617214
C            9.30144560173028        0.65855556491483      -12.67302810390778
C            7.37433527390503        1.66557357495746       -8.18535698740788
C            6.67787582906734        1.33277191426630       -7.05264842725084
S            5.11025929682441        0.29715461436535       -4.54096746383895
C            4.40579393414529        0.85148397650396       -3.05387590049914
C            3.71648072515639        0.14505501401797       -2.08616499033243
H            1.15214039983642        0.10452225936004        1.64740989213826
H            1.21721584865119        1.59915208263649        0.72052795597973
H            2.54041285567036        1.18293942488156        1.82643557993659
H            2.04968659458572       -1.74280005682316        0.96914387543332
H            3.42336699366275       -1.79450079904119       -0.12998425578681
H            1.77396116089819       -1.70274906191084       -0.77592927366139
H            3.08515990384614        2.69906595973902        0.03395163428597
H            4.30600499860588        3.94794635988565       -1.68540076276885
H            6.64337883543419        4.33997669955111       -5.52568575135056
H            7.89803658423962        4.94449493423104       -7.55031370037968
H            8.89637465744354        4.32734677320402       -9.69153309853476
H            9.78935444173120        3.79789946318223      -11.67856674496076
H           10.78854819568264        3.44571199216951      -13.84671541759400
H           11.25568765432180        1.92635096048300      -15.72406626060805
H           10.47212037904468       -0.40243347709903      -15.64444814280656
H            9.21895974544594       -1.21269985055524      -13.68900467822386
H            8.75486614130874        0.31803718160106      -11.81159972059587
H            7.58087850248902        0.92392872316291       -8.93686111516904
H            6.33240268161375        0.32490399658375       -6.90499649152111
H            3.55449691192813       -0.90740785818507       -2.22305074017867
