45
 energy: -9.152430549931 gnorm: 0.000814588519 xtb: 6.5.0 (97a52f5)
C            1.54202249428038        0.49643254999338       -1.08317323122363
N            2.52055327252765        0.04421889644749       -0.09417520632601
C            2.70173188551006        0.88881233027278        1.08626322576684
C            3.24857298762188       -1.14805255495893       -0.26729454221984
C            3.17315390912305       -1.87269002579537       -1.47712145202059
C            3.87519408369382       -3.03095462339793       -1.66767073178489
C            4.69390234020659       -3.52705647437569       -0.64005163917603
N            5.45876051988778       -4.67599910784473       -0.70393265021992
C            6.11521810442144       -4.88219459765662        0.40489231196424
C            6.99420682375774       -6.01204263237050        0.60996259730867
C            7.20956002929872       -6.93396920916775       -0.41744746406400
C            8.04106830777583       -8.01040334223037       -0.23719460042761
C            8.69179981226233       -8.21172955323510        0.98504112135110
C            9.56636996463260       -9.33594477986084        1.18201764485330
N           10.16433489845914       -9.58429400348257        2.28748906883257
C           11.02593675671452      -10.67751202153079        2.43869825373221
C           10.92110458256509      -11.50379641196133        3.55456736035049
C           11.76111933449014      -12.58408021998187        3.71096646741314
C           12.72379933946350      -12.85646883935980        2.75958842947053
C           12.84470237687939      -12.04323213722457        1.65037783792639
C           12.00476531729675      -10.96331639803766        1.48996450467960
C            8.47510855475093       -7.29140295790449        2.01343418986011
C            7.64586847655849       -6.21409660550196        1.82985735341332
S            5.83652321013359       -3.65078777465490        1.65113946423119
C            4.76841497708081       -2.81529980594674        0.56643599171405
C            4.06171626764151       -1.64185219945517        0.75025033983357
H            0.94566420897801        1.31928755292275       -0.69430135154510
H            0.86458241672019       -0.31633293132177       -1.33803069573149
H            2.05047874030149        0.83433245377148       -1.98416499254130
H            2.20661607193972        1.84932210321026        0.95868154224901
H            3.76065255149655        1.07718836532640        1.25251357617825
H            2.28437028150631        0.39879804819925        1.96383870117689
H            2.55621590535605       -1.49553214074932       -2.27273913172970
H            3.81489658941861       -3.57219226793429       -2.59487455079966
H            6.70981273785840       -6.78296382183497       -1.35813554065281
H            8.19964391909696       -8.71250496511486       -1.03747718576301
H            9.71325421944319      -10.01515846813410        0.36069082767447
H           10.16747636053121      -11.28454752840619        4.29029288666788
H           11.66663413987452      -13.21798994897833        4.57740669205941
H           13.38114098083799      -13.70148012948787        2.88327289030636
H           13.59910315903262      -12.25261209199055        0.90972975334604
H           12.10243788242456      -10.32063336061894        0.63278649228414
H            8.97333590654945       -7.44216630306206        2.95492158856380
H            7.48630541382182       -5.50962737695782        2.62688598047368
H            4.13893988779073       -1.12669468963786        1.68897787256172
