46
 energy: -9.386832225558 gnorm: 0.000337900555 xtb: 6.5.0 (97a52f5)
C            1.40795130933044       -0.67590273225310        0.36464965611846
N            2.50892524779718        0.21291833802940       -0.00557916334372
C            2.77186556740212        0.37423361223925       -1.43526584032718
C            3.27299940879174        0.88835782774251        0.96667130221322
C            3.11904411615036        0.59700563787650        2.33939540490966
C            3.85276327894882        1.23968399421437        3.29859182087558
C            4.78629568560281        2.21870770616393        2.92244773238887
N            5.58813448652572        2.94167014759139        3.78541990169181
C            6.35435474295435        3.78076797308057        3.14597155226708
C            7.29608836698412        4.66031736167435        3.80296379417222
C            7.44206588299715        4.62995371252687        5.19045010709760
C            8.33345550075113        5.46273646354901        5.82098511761244
C            9.10646608553306        6.36073719188142        5.09248205517366
C           10.06236529371960        7.24622177495782        5.79832944138696
O           10.58148163756411        6.86985092384854        6.83611584444392
N           10.30885187616998        8.49988176002065        5.23686021700410
C           11.18023030326137        9.49118898347364        5.72294777418289
C           11.26885863403366       10.71978989988845        5.06991162082337
C           12.11992372292153       11.70006933573670        5.52831810866795
C           12.90031467736953       11.47534391160193        6.64538290482083
C           12.82527966705438       10.26394863712754        7.30385189639836
C           11.97368443312535        9.28449233267101        6.84701603037220
C            8.97378916834633        6.38657461614909        3.70616666613971
C            8.08477773054519        5.55286933172896        3.07401153532164
S            6.14507947817414        3.75246754604460        1.38489410700204
C            4.94217445095302        2.51387136628201        1.56075338365295
C            4.19931190174415        1.85945671439504        0.59626398777718
H            0.80689392120607       -0.93362296428294       -0.50481462913281
H            0.75835717282405       -0.18612359897024        1.08735666644637
H            1.79970048987428       -1.59359558164032        0.79882112599904
H            2.24039061152673       -0.37695399101274       -2.01573106582499
H            3.83548072941585        0.26116644380781       -1.63542013594566
H            2.44846096917381        1.35962354355766       -1.76476203037140
H            2.41406451221826       -0.15879127836287        2.63531175759249
H            3.72984872592624        1.00878433317606        4.34154379870493
H            6.84376379430992        3.93950938693906        5.75857901410560
H            8.44814724353044        5.43236046946961        6.89083572879753
H            9.76637601051095        8.75103581563933        4.41930121861615
H           10.66138246232460       10.89399729471645        4.19920378327417
H           12.17752330187924       12.64549650592968        5.01416384784952
H           13.56617489511143       12.24375202175526        7.00242879976196
H           13.43321961318034       10.08613514471801        8.17572144010333
H           11.90569394604217        8.34026367437433        7.35495921380820
H            9.59254740772311        7.04943420278031        3.12755881440379
H            7.98871834282058        5.57510381207068        2.00282751447138
H            4.33843319565024        2.11933039708833       -0.43602182149705
