35
 energy: -6.953751064375 gnorm: 0.000689563036 xtb: 6.5.0 (97a52f5)
C            1.27265339891676       -0.62794122826679        0.60478374022488
N            2.49930922119244       -0.03711049404183        0.07057908514703
C            2.96060843832342       -0.54060780558357       -1.22267498870912
C            3.18705717600162        0.98475979313900        0.75390987550996
C            2.84800085035309        1.32283260982863        2.08193354410660
C            3.50691061277667        2.30783678278088        2.76493287068009
C            4.54912588535150        3.01060180453293        2.14000530534182
N            5.29768417960086        4.02080244680355        2.71306723299737
C            6.19513466972257        4.48743857510425        1.89148698815455
C            7.11910450542020        5.54541409077738        2.23671433792829
C            7.11601104662084        6.09382980327602        3.51930132908322
C            7.99290317090002        7.09501129225285        3.85685829415321
C            8.89758089139093        7.58833085522682        2.92473716392576
C            9.84838402743220        8.66800137714956        3.31364463875201
O           10.38368510382378        8.61559770400196        4.40734418318520
O           10.05734568312611        9.67428222452634        2.41417610499024
C            8.91382515457902        7.04009090170684        1.64717319906521
C            8.03912383803711        6.03712231317982        1.30904543686756
S            6.18910958143264        3.70497177323000        0.30172501170737
C            4.88749807524156        2.68231669031144        0.82038701060642
C            4.22010808588102        1.68430655215204        0.13632604848969
H            0.75136231425340       -1.19656288949126       -0.16220950419123
H            0.60264595368535        0.15469551558912        0.95443209670629
H            1.50980265993200       -1.29476000306972        1.43109976730393
H            2.45646260225103       -1.46982352558149       -1.47904565451553
H            4.02982590121542       -0.73852491921163       -1.18598402732063
H            2.75667742055806        0.19150776546738       -2.00119205086779
H            2.06090275163119        0.77931723336234        2.57268999734177
H            3.24423635085093        2.55538537088702        3.77780451857949
H            6.41639917348760        5.71329391165688        4.24270884563284
H            7.99532423169644        7.50797905725676        4.85108336343745
H            9.49093175089286        9.57048362830227        1.62498085447759
H            9.63515843190751        7.39274793557195        0.93073446545802
H            8.05722633810354        5.61386163575995        0.32021487993337
H            4.49987052341410        1.46796122141371       -0.87729396418322
