4
 energy: -0.878953483371 gnorm: 0.000008230172 xtb: 6.5.0 (97a52f5)
C            1.09804611422941       -0.06252000000000       -0.05929000032801
C            2.30731909143418       -0.06252000000000       -0.05928999967200
H            0.03151149109003       -0.06252000000000       -0.05928999988183
H            3.37385330324638       -0.06252000000000       -0.05929000011816
