74
 energy: -13.947128341722 gnorm: 0.000457847272 xtb: 6.5.0 (97a52f5)
C            4.29435449343275      -22.70295396926403       -1.51745843264883
N            5.17274404699650      -21.58799742695688       -1.16558724536438
C            5.96766256886748      -21.73757165050304        0.05304066680681
C            5.24357238565359      -20.42308439033572       -1.95411511530238
C            4.33783299321679      -20.21041731137954       -3.01584344142628
C            4.38701730635630      -19.08338902364906       -3.78937375915098
C            5.35895807409511      -18.10381384152237       -3.53190907493857
N            5.51489422468108      -16.91925926541058       -4.22617392845039
C            6.49852150952014      -16.20679491676999       -3.75431435284144
C            6.89014249739038      -14.92422990769042       -4.29404512445395
C            6.26353164935000      -14.41383433578504       -5.43167588018231
C            6.67871938804570      -13.22948956533879       -5.98926606647155
C            7.72982083948699      -12.51718241924679       -5.42750806886288
C            8.25501327311698      -11.29980386280253       -6.08722083843613
O            7.65636012550002      -10.79360445809956       -7.01758405374019
O            9.44613001524847      -10.83673459446143       -5.58976064386249
C            9.98583028203567       -9.81117252683603       -6.39801972194773
C           11.36297145917120      -10.16806978929944       -6.94708437923535
N           11.94035049062376       -9.05686856527010       -7.68354833015182
C           12.08494295207663       -7.79395872423568       -7.13471127022935
O           11.85965201665870       -7.59898286347837       -5.95284986436379
O           12.47701835433702       -6.82660744302689       -8.02427032722192
C           12.61159756287912       -5.49142817031008       -7.46422181276885
C           11.26119156500881       -5.01111353065857       -6.91726775819268
C           13.68017836752129       -5.48526493747913       -6.36352138648446
C           13.05483777085005       -4.56416902564150       -8.60623326570453
C           11.28829421266771      -11.38504867366512       -7.84644668964994
O           11.19982187609185      -11.22406236369494       -9.04316425489419
O           11.30934956476054      -12.59334353405023       -7.21796833453176
C           11.20664252188784      -13.63732178808749       -8.16350566414853
C           10.92260494802231      -14.97032301641648       -7.53889096475876
C            9.93278100442570      -15.08164157866783       -6.58149916854654
C            9.63617669139123      -16.30042695284981       -6.00960329399020
C           10.32956384944874      -17.42705689943764       -6.39418291090853
C           11.31865253198044      -17.33011162577657       -7.35050039109854
C           11.61274705685491      -16.10897578443205       -7.92139867924035
C            8.33997699014657      -13.00474348780841       -4.27930827076860
C            7.92789724196896      -14.18787512094250       -3.71977419927819
S            7.34126955051856      -16.95590941782559       -2.38883060590975
C            6.26212402706222      -18.31057494451171       -2.48048867682980
C            6.20746276985512      -19.45085127636874       -1.70209598328354
H            4.54630675356440      -23.59092132233203       -0.94186002709493
H            4.40277784922449      -22.94630949938395       -2.57224833012319
H            3.25868584571634      -22.43914480564914       -1.31367556136499
H            5.61818803184366      -22.58178687449151        0.64329199872475
H            5.88341870752990      -20.84267334615787        0.66602221861232
H            7.01253400838229      -21.90109104470207       -0.20221751152903
H            3.58103211230207      -20.94859698266727       -3.21082226416779
H            3.68950377856831      -18.92888040717476       -4.59291728746564
H            5.46217603375430      -14.97638386221215       -5.87732780311774
H            6.21356609742796      -12.84887760853078       -6.88245631108551
H           10.04534570336505       -8.90406418590480       -5.78583536208239
H            9.30298212246804       -9.61363952641383       -7.23154032705560
H           12.03141555918031      -10.39815069880561       -6.10667720369476
H           11.95001654026978       -9.18848225576006       -8.69465493514634
H           10.92916714751082       -5.65442854085747       -6.10492603345930
H           10.50389209494754       -5.04094630893040       -7.69832144731017
H           11.32901617410207       -3.99182747373647       -6.54043762879426
H           13.38841762819802       -6.14239157146644       -5.54672378414312
H           13.82583664994793       -4.48371553851505       -5.96194517950249
H           14.63073739848183       -5.84138838694051       -6.75594249299225
H           12.31737501552795       -4.57187788004683       -9.40661376947691
H           14.00089633224246       -4.90439687780633       -9.02302634061318
H           13.17849158429740       -3.53944192965674       -8.25938887211315
H           12.14436139404012      -13.66040350790054       -8.73114152440528
H           10.40444751985740      -13.37540566706769       -8.86472453786945
H            9.40073208879820      -14.19625214976812       -6.28369233154133
H            8.86272450316740      -16.37166859792120       -5.26363660840556
H           10.09809464650301      -18.38098906699779       -5.94937595539617
H           11.86144993723969      -18.21018922852196       -7.65393104571105
H           12.38142992010281      -16.03358501395670       -8.67123989119612
H            9.16159069850748      -12.45337981247808       -3.85489193130652
H            8.41669336686501      -14.57172221559589       -2.84186702351942
H            6.92330570697675      -19.57897483151396       -0.91239333236088
