34
 energy: -5.942837610364 gnorm: 0.000922967165 xtb: 6.5.0 (97a52f5)
C            1.54137418515377        0.68343952770024        0.96731051988141
N            2.48892322747361       -0.06426506730312        0.13990506371944
C            2.41109228328791       -1.52410603088666        0.20239345998109
C            3.42534517474420        0.59030236327129       -0.68381195081535
C            4.26344754464441       -0.15051213910478       -1.54509978597764
C            5.17647040946322        0.45806958795316       -2.35864746947729
C            5.28544932837916        1.85143176843546       -2.33420532686921
N            6.10449764173597        2.68262106154554       -3.04732981916004
C            5.80227330970490        3.91818095196497       -2.65344744732009
C            6.47868664241271        5.04155397257679       -3.20789180266735
C            7.52591867985110        5.07428446486303       -4.05705372564548
C            8.13039051451235        6.23510463243408       -4.48330912842549
C            7.80151120644372        7.49969286071678       -4.11775687034498
C            6.90117418377327        7.97909730264680       -3.19451082966656
C            6.48284335084004        7.46970157219766       -2.17144549967929
C           -1.19871272543525       10.12892768148362        1.75451097512416
O           -0.93616001833187       10.96107916179656        0.93584594761874
O            4.76076301417949        4.04705561578531       -1.62697133673941
C            4.46660303367793        2.65134070552935       -1.47730234446703
C            3.53822769767263        1.97860028496292       -0.66344290507523
H            0.83582092117003        0.01577640776345        1.45692420851580
H            0.97477070620441        1.37829480727197        0.35075023748583
H            2.07344038411491        1.24146298157960        1.73506079031891
H            1.70263626735054       -1.84758272567739        0.96185740761550
H            3.38489629322371       -1.94006819260350        0.45275293102752
H            2.08887559358920       -1.92286671499790       -0.75735428376516
H            4.17306412019783       -1.22159217055913       -1.56610773450683
H            5.80934356317179       -0.11065613048633       -3.01594945552922
H            7.90049821682338        4.13051939268819       -4.41628048198255
H            8.93900671864130        6.14357749057384       -5.19117017023115
H           12.08676715105589       12.39039624744458       -2.77020058447115
H            9.45141695161843       10.91811446953311       -0.30908062770676
H            7.40734538232249        7.18500524717524       -0.62864765981007
H            2.91357907032649        2.55721857405610       -0.00996440682943
