54
 energy: -10.303159672910 gnorm: 0.000419201664 xtb: 6.5.0 (97a52f5)
C            1.51784108353672        0.97214856350468       -0.12292897228006
N            2.49186648464198       -0.09441290626693        0.10829984696703
C            2.75545848036854       -0.45617114219511        1.50121435788265
C            3.14848247391653       -0.73402637185447       -0.95442203203160
C            4.02224568768143       -1.81170761288361       -0.72613622847233
C            4.66320445781399       -2.42859233378008       -1.76181255467651
C            4.47781010746889       -2.01416998655323       -3.08930483238754
N            5.14141984371198       -2.65385933796210       -4.08932509396593
C            4.94341060109504       -2.22903979923579       -5.31691966971337
C            5.66671671119694       -2.91638734072404       -6.34922206456569
C            5.65390144795143       -2.63617204287954       -7.66766353234875
C            6.39876506180968       -3.34145498747760       -8.68303266313035
C            6.35169094627344       -2.89812617187508      -10.00712016797715
C            7.05079792378717       -3.52992080414482      -11.01160768404717
C            7.83425684507085       -4.66180266603286      -10.71012029213740
C            7.88369667719218       -5.12682044601376       -9.38081195344415
C            7.17773206513776       -4.46661008333842       -8.39953225225318
C            8.69910004767165       -6.33610680534137       -9.02170064910865
C            8.92984219618743       -7.27231882586514      -10.21657862008731
C            9.40627288112615       -6.49092419075393      -11.43969586138713
N            8.55737743487787       -5.31418470873735      -11.71789942019975
C            8.52608058752250       -4.86607374718853      -13.12559854767044
C            8.20782241126917       -3.37728403202533      -13.25278244220802
C            6.97403085235600       -3.00675512142431      -12.41728067473663
C            4.03872618227803       -1.11573655703377       -5.63549688513316
O            3.88485685275759       -0.77087490078132       -6.80074072187614
O            3.37617009846444       -0.47799732652193       -4.61502938298019
C            3.60281800898866       -0.93543536535980       -3.33696998220815
C            2.95769816739577       -0.32166887233061       -2.26766015736712
H            1.03746090537829        1.27244686494639        0.80575331343075
H            0.74373388596272        0.62870693883252       -0.80634465372802
H            2.01247361142321        1.84215994331927       -0.55042798845068
H            2.26634855725520        0.23416860910764        2.18527425088095
H            3.82498632346507       -0.42305920689256        1.69917102552936
H            2.38492899383547       -1.45952850845678        1.70199681967052
H            4.17925625396681       -2.15918361284913        0.27904440269694
H            5.32924491783730       -3.25259921649100       -1.57494930212177
H            6.28410161891892       -3.72519320185402       -6.00539914245630
H            5.04689404532619       -1.81616333230412       -8.00167702970768
H            5.75429157555268       -2.03686085678268      -10.24754189423321
H            7.23029761522513       -4.83927493928668       -7.39382004071017
H            8.20451292631054       -6.87527118274157       -8.20363828671659
H            9.66262701407876       -6.00298384173855       -8.61833454140858
H            7.99496014547466       -7.79182216234325      -10.45911981028625
H            9.64996046176870       -8.06091820411400       -9.95786285560245
H            9.42191958268583       -7.12770586254007      -12.33101758763066
H           10.43089962376378       -6.13595743833435      -11.29152866762310
H            7.77432721969992       -5.46422387037268      -13.64988690654759
H            9.49091075699332       -5.10232629091559      -13.58768803117343
H            8.06038855965957       -3.10225105260403      -14.30635734386363
H            9.06937145912500       -2.79138040279430      -12.91040074376609
H            6.06999029318416       -3.40593233216183      -12.89197067505567
H            6.84113785049897       -1.91773850708198      -12.39220635723125
H            2.30267318304995        0.49997758953573       -2.48367882034742
