38
 energy: -7.662857939941 gnorm: 0.000730513540 xtb: 6.5.0 (97a52f5)
C            1.42800270719388       -0.68695202034702        0.39320409984044
N            2.58867917268461        0.07848084472515       -0.06202113451552
C            3.04885986205083       -0.18132923485253       -1.42591391920425
C            3.24996856738921        0.98560973103002        0.77753632479757
C            4.30013866530208        1.78931847403062        0.29684177937516
C            4.94387588551680        2.66958614507033        1.11717440198025
C            4.58828228103809        2.80683649656217        2.46754465800235
N            5.26380882393632        3.68873832812852        3.25125219160288
C            4.90687617747560        3.77471820913828        4.51131591220056
C            5.64824826208431        4.70264643857921        5.32064717587252
C            5.46970599926225        4.94127797420037        6.63282246614861
C            6.23185972227313        5.87587179406289        7.43539287395385
C            6.00164705320374        5.94416964879312        8.81140153813949
C            6.70862648083585        6.81850425543792        9.60501638141628
C            7.65981255620318        7.64761115022543        9.04554899221882
C            7.90123738132250        7.59846607852111        7.68726240119343
C            7.19775769896421        6.72478174337575        6.88880280630416
C            3.81451872636492        2.97574051484746        5.08270426859328
O            3.52076589385835        3.10550184507127        6.26394660658229
O            3.13822610699636        2.09280189559438        4.27866753203073
C            3.53670582853932        2.00958123859296        2.96606262072890
C            2.89163698056363        1.11925585732247        2.11303518591330
H            0.92988646094593       -1.17219452346240       -0.44348822017958
H            0.70764629971818       -0.02685932406651        0.87245793492809
H            1.74150923542210       -1.45156046567795        1.10148771381568
H            2.53037214074260       -1.03510558013877       -1.85662454230761
H            4.11441922615185       -0.40217099424250       -1.42455169453644
H            2.86291858878058        0.68840749169298       -2.05314536026247
H            4.59170960360693        1.71347976655725       -0.73512050163129
H            5.74521893576806        3.27966482801334        0.73880603307452
H            6.42354430766124        5.23683532743231        4.80364691432910
H            4.70234301690784        4.39046183665627        7.14330447947763
H            5.26126560052380        5.29785237616203        9.25099027814821
H            6.51917226535517        6.85626825487631       10.66547960461099
H            8.21238512068767        8.33228921055834        9.66783578646510
H            8.64232265978889        8.24801976179958        7.25034550645606
H            7.39190777858820        6.70447425402144        5.83152206689860
H            2.10436792629309        0.51673037170495        2.52272883753538
