48
 energy: -10.085088624478 gnorm: 0.000990547980 xtb: 6.5.0 (97a52f5)
C            1.04751668492398       -0.38601614540452        0.95144616165471
N            2.25408122295466        0.02648525784414        0.23441199965150
C            2.47534644534271       -0.57071941204956       -1.08246883758952
C            3.15164242819611        0.96757778461853        0.77986513732134
C            3.00153205980490        1.42780341603677        2.11232403900660
C            3.85727397411445        2.33494408353945        2.65104861080819
C            4.93957757046425        2.86823214639073        1.91018235254405
N            5.76118925074963        3.75897591303759        2.50739049399621
C            6.74371572817234        4.20827188972998        1.74030653905270
C            6.97747811811277        3.84755627701767        0.40559990724429
C            6.15605672177311        2.91876330036853       -0.19983722894112
C            5.10307532264136        2.41330442176062        0.56280067006969
C            4.19851520244926        1.46637849809362        0.03553915295081
C            8.15216892185133        4.58049674136258       -0.00312766481785
C            8.78713030684627        4.55768543042616       -1.32159632650020
C           10.14133308767752        4.86941256130962       -1.43769556072095
C           10.76596644507496        4.86348245370736       -2.66462565308806
C           10.04901405441509        4.55536667131949       -3.80388371242796
C            8.70292516396675        4.26077917804399       -3.71181399853187
C            8.07556873513301        4.26480824675232       -2.48607041475673
N            8.61113947857326        5.30233029227015        1.00602154277206
N            7.78846557064356        5.10721472038702        2.04761249471959
C            8.00104168145185        5.72064643748212        3.32623889489499
C            7.16744495234732        5.46107392751744        4.40487141599462
C            7.38944505458681        6.05685430708819        5.62581040651105
C            8.45197645333081        6.92437046293600        5.78590892590808
C            9.28953231802931        7.19231089286370        4.72034101955083
C            9.06488466350252        6.59381220856128        3.49978372567593
H            0.38372317603730       -0.95739714060428        0.30584275234831
H            0.50284282690263        0.48948242070857        1.29971241382446
H            1.31385554557379       -1.00473702559458        1.80635613550624
H            1.78760704134198       -1.39588593004832       -1.25698071248793
H            3.48969739469964       -0.95922769094938       -1.15199784785718
H            2.32405397812271        0.17447225947600       -1.86119968757650
H            2.19752429613946        1.03784164799600        2.71041282649104
H            3.72935601080928        2.66669584012130        3.66646863451466
H            6.33026530693384        2.57050897573714       -1.19980870165738
H            4.33140181538532        1.14270726418117       -0.97945412126777
H           10.69396679042134        5.11219833844229       -0.54681984108444
H           11.81464857563270        5.10079588575844       -2.73633450257605
H           10.53784238971637        4.55161000873351       -4.76442972194276
H            8.14065392173810        4.03361200703479       -4.60276350674107
H            7.01838445257440        4.08075337141388       -2.42678118818707
H            6.34382260608602        4.78571893815690        4.27144518629382
H            6.73434405559593        5.84607195680051        6.45525651720257
H            8.62670838940246        7.39267304752085        6.74066169145719
H           10.11917221657013        7.86891331451471        4.84362208780148
H            9.71011159318412        6.79451054759208        2.66290749298517
