68
 energy: -13.564046606284 gnorm: 0.000609931558 xtb: 6.5.0 (97a52f5)
C            3.58505338979528       -0.12175146977440       -2.04967731668564
N            4.06457748156771        0.18220153297640       -0.70203928765315
C            4.83059071006732        1.41675457436274       -0.53802976112410
C            3.77518285574182       -0.66132571637478        0.39443079468705
C            4.07272968259148       -0.27205406167290        1.70280058197819
C            3.79049130836281       -1.10004926861555        2.76618775729776
C            3.20838976067737       -2.33063005126529        2.55513037948473
C            2.89388034393545       -2.75908428966547        1.26301871788914
C            2.28944540833688       -4.06407219325429        1.06899019988849
C            1.91858595954856       -4.59454417403348       -0.10716479753016
C            1.34119901323355       -5.90801297694123       -0.20810412867715
N            1.10514486334064       -6.70024707604494        0.83992322914184
C            0.58351987941845       -7.81329066401208        0.33823158939669
C            0.49189628609291       -7.71741395104032       -1.05607391778614
C           -0.01457204533651       -8.72786943823544       -1.98266174564195
C           -0.06414971507109       -8.44698950884438       -3.33941383366570
C           -0.52961123247609       -9.38336887277304       -4.23569163519107
C           -0.96644725546543      -10.63463561625156       -3.81757332369020
O           -1.45294362401585      -11.51125437755163       -4.80113446446947
C           -2.22431438639211      -12.59568311575667       -4.29974618179858
C           -2.98533891823790      -13.34905562497822       -5.34366194644745
C           -2.70110975871144      -13.18755220785004       -6.68752974562461
C           -3.39907780758905      -13.89751043770591       -7.64307022605707
C           -4.38741305252062      -14.78057494719175       -7.26004949135205
C           -4.67507056636989      -14.95321170114077       -5.92188745005409
C           -3.97604605733785      -14.24201064970680       -4.96966484703251
C           -0.90217205823236      -10.94313805792505       -2.42866141511309
O           -1.27868905772131      -12.21991075109659       -1.96083294898327
C           -2.21467362861926      -12.19770255919100       -0.87473436100864
C           -3.32184054352668      -13.18541071465732       -1.07632526617051
C           -4.62451390286085      -12.76554360214823       -1.29377764780691
C           -5.62523720094601      -13.68370839815490       -1.53646370157383
C           -5.33296507205473      -15.03125956171201       -1.57058839343225
C           -4.03798965599007      -15.45860571019907       -1.36395016489610
C           -3.03864473194230      -14.53902914711521       -1.12073581558998
C           -0.43554391667657       -9.98203694879660       -1.54673651312117
O            0.97615693849756       -6.48995803722105       -1.40107013692377
C            3.18575600728321       -1.90882565252254        0.19939541013739
H            3.71144255082344        0.73398514986609       -2.70986296966256
H            2.52596050630456       -0.37108433961261       -2.02342082001221
H            4.14017628786624       -0.96189540519710       -2.46256846121888
H            5.14663989524164        1.80917262611507       -1.50252669007159
H            5.72357273056195        1.22856420648309        0.05481147437999
H            4.22271054679338        2.16956248657148       -0.03983930302590
H            4.51701364208649        0.69075469807723        1.88101954252212
H            4.02541925337633       -0.78344725677473        3.76927359225979
H            2.99116164013839       -2.97489089191304        3.38968837249137
H            2.13131920529287       -4.65985213782886        1.94987372756637
H            2.05088981861405       -4.04786552429843       -1.02081659292329
H            0.27317132390498       -8.65410081894173        0.93896313366325
H            0.26783190158280       -7.48152739063051       -3.68047814420291
H           -0.57309575927539       -9.15577150754660       -5.28598058256503
H           -2.92048484809197      -12.18811726081620       -3.55932307397509
H           -1.53874089912152      -13.27156249629541       -3.77725171028414
H           -1.92843460287189      -12.49506013516381       -6.97386688791097
H           -3.17178962998009      -13.76146614622282       -8.68764739565846
H           -4.93399360514372      -15.33531041686657       -8.00506226583830
H           -5.44542403727623      -15.64372620629433       -5.62022544297655
H           -4.19475006331412      -14.37220551267055       -3.92409969174439
H           -2.62098204846962      -11.18537926608212       -0.77803450472210
H           -1.66621588982566      -12.41963329192795        0.04678167768153
H           -4.84879506984816      -11.71271101752600       -1.27952600617782
H           -6.63520747221253      -13.34720368260672       -1.70411695860743
H           -6.11455221649293      -15.74827345344166       -1.76193351381935
H           -3.80572909193930      -16.51050062674891       -1.39683466940689
H           -2.02250723434855      -14.86433424887653       -0.97678187753211
H           -0.37428869069739      -10.22824517851200       -0.50389296102203
H            2.96772615587840       -2.22637953018707       -0.80124919209952
