21
 energy: -4.122463689154 gnorm: 0.000384838368 xtb: 6.5.0 (97a52f5)
C            1.11967552734806       -0.29672696326070        0.08051703690865
N            2.53930634289554        0.02647256249535       -0.05228474199539
C            3.19482402562004       -0.38643138618177       -1.29224067876711
C            3.24096781535463        0.71373148809856        0.96326716366355
C            2.67121243975531        0.91770105126461        2.22190069603333
C            3.36168524349628        1.58113189122945        3.21062873738448
C            4.63291588467899        2.05850575012511        2.97066934074543
C            5.23024762168879        1.87542694316241        1.72830986596425
C            6.52441076855981        2.36186131459582        1.47483070503300
N            7.59321640444135        2.76313877056015        1.26480422335417
C            4.52690200797892        1.20584052735313        0.73969394226754
H            0.69485443869945       -0.57470289336980       -0.88179961678544
H            0.57200374601105        0.56729692592777        0.45126953069457
H            0.99047508579605       -1.12782159571928        0.77091818294775
H            2.58892877138956       -1.11659581811190       -1.82463009446926
H            4.15636050446437       -0.84606548214463       -1.07274437080869
H            3.34786758424875        0.47602567474650       -1.93782192426849
H            1.68546307381810        0.53860325220285        2.42363987969720
H            2.90780298491533        1.72701892196790        4.17717006113664
H            5.17624469394280        2.57826937976258        3.74120746886834
H            4.98783503489806        1.07832968529774       -0.22197540760457
