30
 energy: -6.071833060688 gnorm: 0.000675913617 xtb: 6.5.0 (97a52f5)
C            1.03869753918130        0.47584513943367       -0.03956881566600
N            2.39967978884193       -0.05304996924371        0.11509918721676
C            3.06485968848348       -0.33448875346315       -1.15541695877935
C            3.16358863904227        0.26767071954569        1.26673042000740
C            4.38466674814433        0.95326772094443        1.16041193016327
C            5.08165294324093        1.37781293356692        2.27284403831535
C            4.60072367142397        1.13649771729787        3.54815455415956
C            3.41591022162751        0.44019419543219        3.68706728353814
C            2.70262644675461       -0.01335702515010        2.57093832898740
C            1.57161777457547       -0.80425119268236        3.04841241964700
C            0.63536746973320       -1.57622003894894        2.37245906391330
C           -0.31484387207502       -2.26581097700987        3.09687759241769
C           -0.33177607925040       -2.20756767266867        4.48426102546614
C            0.61061761490778       -1.46870973211018        5.17099499208771
C            1.56394304160435       -0.77277199809336        4.44923725933114
C            2.71356084504133        0.01976641356713        4.91269171791657
O            3.02215105553781        0.26866405211821        6.05992334494401
H            0.40896012268884       -0.24099887564981       -0.56253125490222
H            1.06565938901128        1.40011068068985       -0.61315915198955
H            0.60040355471876        0.69185042308869        0.93229407324797
H            2.43419685497043       -0.96807934189495       -1.77587339419909
H            4.00460786225493       -0.85367919136288       -0.97797449947778
H            3.26646110001555        0.59154135369472       -1.69013709969808
H            4.76213467752877        1.18297018167902        0.17996736411550
H            6.00903775599267        1.91230156527901        2.14834714353310
H            5.13470924328468        1.46401069977669        4.42271115001831
H            0.68143371696370       -1.65537502776228        1.30240451426103
H           -1.04787663033367       -2.86271541678324        2.57983261707575
H           -1.08066598588564       -2.75612782667529        5.03134804791891
H            0.62557480197504       -1.43566075661469        6.24619310643015
