30
 energy: -5.086157129527 gnorm: 0.000998850704 xtb: 6.5.0 (97a52f5)
C            1.12759810692305       -0.05183377858134        0.07819346928832
N            2.53013170277823        0.30497846748930        0.28546286615670
C            2.80461243610131        1.73704289835362        0.40991192546649
C            3.54502640836904       -0.65437015443958        0.44969773755303
C            4.78574702953439       -0.28452391842452        0.98617349417209
C            5.79012305527079       -1.20817055989755        1.16040252482140
C            5.58698109938863       -2.52673424744815        0.79858242465055
C            4.40278540236962       -2.89980531785832        0.27418253724168
C            3.37766912540319       -2.01456043066761        0.09503503675014
C            2.22319898674218       -2.58194779121734       -0.53485647559123
O            1.53677517584266       -3.69545969695805       -0.35498536342874
C            1.51355308099590       -4.55451914384267        0.64323200454729
C            0.88429208142706       -5.72714196682234        0.76179377160752
C            0.73083148548448       -6.54769288327270        1.78738804515067
C            1.05434919270412       -6.48388736747873        3.06933271794581
C            1.69257745467891       -5.50679112860317        3.79497134853558
C            2.42733699850784       -4.60777421387659        3.41760774587820
H            0.47393953245641        0.78271565002145        0.32353053889260
H            0.85751963103270       -0.88901519349363        0.71855751632119
H            0.96358810702215       -0.32900344260606       -0.96109523180430
H            1.99863299478696        2.32366473365567       -0.02711558546569
H            3.72403134903007        1.99065272241532       -0.11496897338461
H            2.90377528432149        2.00893933560422        1.45931985604631
H            4.94830461757580        0.73573587213958        1.28349007512535
H            6.73459989077850       -0.90501147873396        1.58186151001760
H            6.36371877316193       -3.26062214756854        0.93429696489264
H           -1.40998374611514       -4.26974158326817       -2.85378486711162
H           -1.99562152548829      -13.61508680295356        2.29840536312148
H            5.88844300968423       -9.90786641156300        6.87495019128716
H            3.29389325883835       -3.50882002047216        2.46266683101542
