32
 energy: -6.527443165381 gnorm: 0.000926059065 xtb: 6.5.0 (97a52f5)
C            1.13654502309181       -0.42101810653438        0.02300658140153
N            2.59104115819409       -0.24032997905652        0.04278314688024
C            3.21694908393865       -0.20851493945585       -1.27789907053155
C            3.27258639846596        0.21715816364224        1.19371258945118
C            4.24316075909419        1.21726706848675        1.04644005343625
C            4.82815632477242        1.81369147160412        2.13396042730863
C            4.45963859474306        1.43462865664388        3.40631038961994
C            3.53088185783595        0.42819791144721        3.60662440823618
C            2.95365809223733       -0.22885521975011        2.50357836057622
C            2.12185689342380       -1.42281871603331        2.74347953304056
O            1.87622411831373       -2.23782296454321        1.87288171982961
C            1.60558827432800       -1.65165225131924        4.10839185051557
C            0.62598187667405       -2.60865040448960        4.33044502772224
C            0.15216258404455       -2.85126563077692        5.59930756644837
C            0.65674870782644       -2.14124540979560        6.67194937718063
C            1.63349892370663       -1.19349998859009        6.46969358782407
C            2.11865208131282       -0.93611756291669        5.19611165466169
C            3.17025516365958        0.07201887430884        4.99224686916357
O            3.71439097295139        0.60748992673608        5.93924761998520
H            0.71085284712392       -0.02322935562413       -0.89491355573975
H            0.68610116385643        0.09416534122722        0.86822915915016
H            0.90323202042785       -1.48093450523476        0.09543036176844
H            2.75570020157323       -0.94873657460640       -1.92858771441087
H            4.27584340606045       -0.44306398086317       -1.19503945785538
H            3.10151927685909        0.77535814055326       -1.72746278186711
H            4.49909443060573        1.55406548827940        0.05768512177780
H            5.55958074692754        2.59300731606427        1.99501331601705
H            4.89531790060212        1.91172102189346        4.26762213358555
H            0.24840204133673       -3.16400570221631        3.48902755744715
H           -0.60902605250778       -3.59735321244739        5.75807869147306
H            0.28786785151155       -2.33198773789597        7.66622601009430
H            2.03917727701003       -0.63786713873794        7.29769946581062
