43
 energy: -8.554988347779 gnorm: 0.000653554596 xtb: 6.5.0 (97a52f5)
C            3.28227995279781       -0.57014810153202       -1.02973226608794
N            4.00836231374299       -0.19451154169256        0.17322471488902
C            4.60102477866946        1.13364798530998        0.22684875698132
C            4.20255152702251       -1.12491612281402        1.22050136579948
N            3.65127839255928       -2.34798723796361        1.03558197023603
C            3.81919742342559       -3.26197348715431        1.97747498359828
N            3.28070380901363       -4.54671828450073        1.81499758163086
C            3.53674472748532       -5.62026491523901        2.76710766664496
C            2.53244790668309       -4.87893570922742        0.61095385968399
C            4.55535275586896       -2.92133520201333        3.13389239312028
N            4.91350970168507       -3.64321436813311        4.23281147516887
C            5.62995622968321       -2.83444174908668        4.99124868260851
C            6.20292444580888       -3.19369916209045        6.21770500324334
N            6.67406090891165       -3.49118100314649        7.23844718017200
N            5.74535003063743       -1.56402915058646        4.41217552557645
C            6.55437099829170       -0.43326587997287        4.88098271519883
C            7.89868005629544       -0.38955387325962        4.23043346810768
C            9.06313847369690       -0.35240946397207        4.98147009225929
C           10.29549855707851       -0.31363403394658        4.36266919800334
C           10.37785300350455       -0.30835317125627        2.98600470757732
C            9.22631122403128       -0.34458655559422        2.22832093059201
C            7.99760767981318       -0.38516099012082        2.84991885016856
C            5.06333157287492       -1.62084217006249        3.21297239131206
N            4.90574910052438       -0.70018771150989        2.26064094058648
H            2.81516739700233        0.30319932768614       -1.48075132842510
H            2.50696634347352       -1.29217487756230       -0.78243645907058
H            3.96486375496839       -1.01966156375104       -1.74792372404399
H            3.82136019574694        1.88512834802692        0.33340193273301
H            5.16364737851293        1.33066304294778       -0.68361948683973
H            5.27565977417954        1.20764074406477        1.07684554355927
H            4.60906849474134       -5.77337503095896        2.86799073475346
H            3.07951933462667       -6.55012407717189        2.43505522706029
H            3.12758187929288       -5.35442643926163        3.73933253975063
H            2.26976094480462       -3.96954334829655        0.07475852077147
H            1.61636757710754       -5.40655072353686        0.86934802523942
H            3.13605267808073       -5.50763270325402       -0.04055364668273
H            6.65231329189697       -0.50334550261650        5.96692438368878
H            6.00824628247837        0.48963004875749        4.66958610360088
H            8.99872582329419       -0.35534323407666        6.05596229393277
H           11.19439701615111       -0.28710754403361        4.95670112817073
H           11.34095704124976       -0.27789987306682        2.50328725915701
H            9.28658303932370       -0.34444648338205        1.15227261872332
H            7.09554618296284       -0.42958821095563        2.26647614684839
