37
 energy: -7.685972868973 gnorm: 0.000480139433 xtb: 6.5.0 (97a52f5)
C            3.28888626799428       -0.73922301784579       -0.95537582123902
N            3.94125718211816       -0.11443812951975        0.18500135178970
C            4.64648941120435        1.13947339699215       -0.03458021711799
C            4.08377373450589       -0.81593906641161        1.40456143972834
N            3.48417342723786       -2.02803118969737        1.46555275030795
C            3.59808228847405       -2.72688907159653        2.58496793109751
N            3.02235030936148       -3.97180850470909        2.71884009378790
C            4.33679393726830       -2.17847432579703        3.65775985164936
N            4.65665649462169       -2.67963955328722        4.88250957535366
C            5.40100949353528       -1.76184081295395        5.47223833168532
C            5.95746213254148       -1.88785673662897        6.75083411265266
N            6.41841005054455       -1.98725192738181        7.81377805477181
N            5.57256686037290       -0.64050479015224        4.64944167232273
C            6.40371231244645        0.54203870971558        4.90198583347394
C            7.75302037463013        0.43655513136454        4.26779903836986
C            8.91297249039528        0.60581802127907        5.00727341123309
C           10.14949613499748        0.51120530067956        4.40312608692908
C           10.24144773521449        0.24760309363272        3.05254199682110
C            9.09452636752221        0.07729176012888        2.30673291971335
C            7.86151166539204        0.17148149266362        2.91368935061320
C            4.89738112294611       -0.91238158884035        3.47667943236307
N            4.79124458689144       -0.20932288715006        2.34812247403003
H            2.80214732375432        0.01162907755203       -1.57438494265333
H            2.53759598408587       -1.44486754187221       -0.60714059649579
H            4.02353302998503       -1.27356808224675       -1.55414614613665
H            4.02301460321046        1.83068020055922       -0.59806805892279
H            5.56545884864301        0.95561500651531       -0.58727843155605
H            4.89581727493173        1.59594296224477        0.92106201453776
H            2.63171860611094       -4.45051408811886        1.93031326882178
H            3.22885738738689       -4.57147549978007        3.49599141298463
H            6.49331732973753        0.67786511196601        5.98259769454949
H            5.87743611266835        1.41793625352747        4.51338426959276
H            8.84167494633195        0.81296059425846        6.06109499769760
H           11.04526265009412        0.64343569207749        4.98774961931599
H           11.20789627575730        0.17382703261917        2.58128105248017
H            9.16250197740551       -0.13184090997600        1.25166914282325
H            6.96257326967083        0.02634888618241        2.34198503262101
