89
 energy: -19.324008117127 gnorm: 0.000429922140 xtb: 6.5.0 (97a52f5)
C            2.71015891273968       -1.59331601673789        0.29333800113738
C            3.01555465404571       -0.39851353566497        0.83272651991358
C            2.54405213736772        0.91397584661036        0.43783137105367
C            3.38348466229527        2.00024564197922        0.73156645900933
C            3.03322083801211        3.29228726257176        0.43887321914457
C            1.81146923966703        3.56006654573142       -0.16483470175349
N            1.38393670236821        4.88811982341567       -0.46797126990883
C           -0.01982650625117        5.16668096084347       -0.62215833211137
C           -0.47688198874818        5.92256981024077       -1.69896898660875
C           -1.82339352658216        6.14896569729806       -1.87680322981725
C           -2.73828381773358        5.62697973652064       -0.98278599405557
C           -2.30059126373257        4.88266010508170        0.09540501972965
C           -0.95470507970625        4.65789788345574        0.27748711073551
C            2.33541105731682        5.93639552616289       -0.71304742868017
C            2.08659198908346        7.23165154262632       -0.26520634210364
C            2.98796093558097        8.24433049486247       -0.50607095683252
C            4.15236197840356        7.98390720642936       -1.20252909335292
C            4.40999101033113        6.70614048390611       -1.66055844400387
C            3.51020631229972        5.69172354534760       -1.42044531522227
C            0.97845696972736        2.48452072472088       -0.44787423908892
C            1.29630194757667        1.16944799465159       -0.16633143332816
C            0.21069257882333        0.10477052383122       -0.38154580126059
C            0.68797940041205       -1.12544385262919       -1.16397352041749
C           -0.10038768986806       -1.58320940975914       -2.20330442946815
C            0.18725843676678       -2.72627192173622       -2.94106586826799
N           -0.67011507786923       -3.12012091519527       -4.01412431753175
C           -0.81208329964301       -4.50258290516963       -4.37696743408504
C           -0.93805451743261       -4.87305699643920       -5.71367432368333
C           -1.08419126453563       -6.19612422844256       -6.06601624666706
C           -1.11014279598478       -7.17368332633431       -5.09011161173362
C           -0.99108776810925       -6.82205108219359       -3.75930715941319
C           -0.84428784972012       -5.49953716283552       -3.40469027305523
C           -1.41721076795237       -2.12196700699711       -4.73136227671422
C           -2.75371566746381       -2.33435568876410       -5.06028802385498
C           -3.47426287724627       -1.36908828225440       -5.72758217510092
C           -2.87279502335615       -0.17714463831746       -6.08313489571258
C           -1.54554020783971        0.04499421276637       -5.77120127073471
C           -0.82365541821212       -0.91741877978050       -5.10192055567185
C            1.31836048443825       -3.45533139038515       -2.59818673545457
C            2.10727975783685       -3.04498495831246       -1.55634546062259
C            1.82564629700716       -1.88423345622709       -0.81928501635856
C           -0.43544683205732       -0.29648893743676        0.95894552107411
C            0.09647157971915       -0.92969278716429        2.06506287276535
C           -0.70027182165820       -1.16232210245083        3.17062324062517
C           -2.02701070343798       -0.76668433030707        3.18089763910092
C           -2.57534285760897       -0.13425624028546        2.08454455632929
C           -1.77567897517650        0.09905982310956        0.97438127998663
C           -2.11313284929523        0.74431526492609       -0.29656578041776
C           -3.30823131640035        1.30090455990653       -0.72988529633697
C           -3.36425534394223        1.86327392817118       -1.98873276205889
C           -2.24654118534734        1.87131795125196       -2.80611775601347
C           -1.05561573583215        1.31632718802494       -2.37700829998871
C           -0.98770500184644        0.75146304766957       -1.11760816854065
H            3.23089768858041       -2.45188749952844        0.68925177985343
H            3.75566034844982       -0.39397835437707        1.61817465068159
H            4.33173543723060        1.80467338754184        1.20308674708352
H            3.68687681208796        4.10875750246632        0.69092431580886
H            0.24002654963490        6.31401240211427       -2.39943197250026
H           -2.16450812526590        6.73046902257050       -2.71779195985989
H           -3.79236566983493        5.80031961035661       -1.12612313881497
H           -3.01373981601072        4.47352042889515        0.79234651701767
H           -0.60839823497283        4.07956994503478        1.11635004141056
H            1.17854536134800        7.42685758854226        0.27819824205500
H            2.78493210921039        9.24138534824689       -0.15041489611086
H            4.85759483501423        8.77704884282264       -1.39052637585839
H            5.31556845683033        6.50364790966795       -2.20897273848024
H            3.69852085442414        4.69865833350394       -1.78947358537697
H            0.02985419112432        2.71521117171626       -0.89129856811186
H           -1.00018605868986       -1.05704330046574       -2.45786805167278
H           -0.91248539186921       -4.10715848895914       -6.46906124194230
H           -1.17785035121203       -6.46936371570921       -7.10446598799599
H           -1.22489036112282       -8.20910563695468       -5.36667312625907
H           -1.01499385078653       -7.58392666080483       -2.99721945186998
H           -0.76452553821564       -5.21904575881646       -2.36893244024186
H           -3.21769685837850       -3.26219794703348       -4.77441180347730
H           -4.50958061589631       -1.54300882080106       -5.97179796150147
H           -3.43829805107896        0.57858812115794       -6.60346948759785
H           -1.07504613263596        0.97397078002230       -6.04943904086984
H            0.21127420138748       -0.75177150188456       -4.85804554748974
H            1.56685934206293       -4.33759497521884       -3.16159076790020
H            2.97638506310928       -3.62371953942136       -1.29262595910047
H            1.12455723157883       -1.23688185590823        2.06391522880562
H           -0.28312124883216       -1.65483827079474        4.03386040092116
H           -2.63549832325242       -0.95391439488333        4.05063760804294
H           -3.60484353772491        0.17808493976188        2.07974579644762
H           -4.16968717131542        1.29232932283656       -0.08555915023646
H           -4.28505631347736        2.30141485972221       -2.33765150069554
H           -2.30501130527572        2.31498816445691       -3.78641395487540
H           -0.18166837748012        1.32507565981595       -3.00523420387500
