72
 energy: -14.526567201705 gnorm: 0.000773873994 xtb: 6.5.0 (97a52f5)
C            1.57751760330344       -2.52453736065003       -0.80354115042756
N            2.60547122754510       -1.48695031742532       -0.74454298624089
C            3.06245363602212       -0.96745182876944       -2.04013947129091
C            2.18827053334851        0.18907585252902       -2.52447467433038
O            2.02011914819814        1.15909757372356       -1.49332279998996
C            2.73990268557926        0.80725742058594       -3.78688912605576
C            2.52081417551613        0.21972477364096       -5.02345578689443
C            3.06638249948659        0.77321288079312       -6.16488190044611
C            3.83711076863167        1.90978275962267       -6.08657007272999
C            4.07820862150865        2.51925483197097       -4.85354483205987
O            4.85066641934552        3.66160115746216       -4.73042112544132
C            3.51603453433716        1.94330668756579       -3.71343183324468
C            3.19176249805650       -1.09458546936801        0.47210208269571
C            4.04753194444916        0.00748962952457        0.56258433339510
C            4.60947638739442        0.36345951605520        1.76308270531934
C            4.33935853379096       -0.35863726684806        2.91319450930945
N            4.98775981982145        0.02733518366194        4.16665502721495
O            5.55809188278179       -0.85065347455994        4.83808516713360
O            4.95275942473213        1.22213552091934        4.51000010526815
C            3.47686088438161       -1.45172352494577        2.85437019537347
C            3.08755800877213       -2.24377183828768        4.06891989949514
C            1.61613194306025       -2.04255632714331        4.44644906642958
C            0.96389910565630       -3.34418899797750        4.03477690187396
C           -0.43653034954542       -3.69175627704313        4.21195047824786
C           -0.73308342838332       -4.97561526491677        4.64634479031444
C           -2.02847002430249       -5.36437261123236        4.96052030717122
C           -3.06303295642759       -4.48177288280963        4.83921085365999
C           -2.84236239482388       -3.17689023516449        4.34954932145098
C           -3.91351631008873       -2.27371370997268        4.16897539618375
C           -3.70400788942917       -1.04524566179460        3.61871965458051
C           -2.42442175503658       -0.67232647971949        3.20444039499485
C           -1.36693194261315       -1.51815455222929        3.37717813839241
C           -1.52843789266485       -2.77576726241916        3.99339501084793
N            1.86364648759181       -4.24067327776888        3.71364053991047
N            3.09112349979952       -3.69549392607957        3.76384053657389
C            4.27456401055436       -4.40332511986057        3.42340035892081
C            4.17367991753644       -5.70991232484929        2.96266103562833
C            5.29900664732756       -6.41826712388786        2.60762564363509
C            6.54479729990654       -5.83064167953559        2.70934676193498
C            6.65995298003858       -4.53302496157009        3.16819292636185
C            5.53588801535520       -3.82360703303809        3.52414889432229
C            2.92394557622771       -1.80203087212707        1.64394503483383
H            1.11765889847924       -2.55482961137957       -1.78909024768969
H            0.79726376154604       -2.32359357110701       -0.07223393014066
H            2.01874391339580       -3.49774744355595       -0.59749673871891
H            3.07427572507851       -1.77951628062361       -2.77169665941328
H            4.09773500758316       -0.63667569540685       -1.94745950467015
H            1.17902040383638       -0.19314596166192       -2.74873499133042
H            1.71457181469184        0.71106740315821       -0.67362322909596
H            1.92474882675337       -0.67436575372503       -5.08528564917360
H            2.88864929931881        0.31037975720331       -7.12172603037162
H            4.26161107065574        2.33804746891736       -6.97664731574383
H            5.17250126871927        3.94590987332398       -5.60769667332371
H            3.68744573065088        2.40419025172101       -2.75876552473394
H            4.24290520943060        0.60173683819910       -0.31174964454072
H            5.26552401095568        1.21434581701377        1.82928959942049
H            3.76315351859224       -2.04251804717912        4.91020107089899
H            1.20745765490994       -1.17601624088244        3.92427438639698
H            1.48227845838211       -1.87648411487473        5.52075095754730
H            0.07935564401847       -5.66866859462800        4.77872546358717
H           -2.21380151703463       -6.36425519919138        5.31697146249054
H           -4.06489595619425       -4.78183591963666        5.09323439769965
H           -4.90447347271868       -2.57513248443117        4.46152433768195
H           -4.52954026052858       -0.36639606110987        3.48137229571078
H           -2.27588157949911        0.28447808970699        2.73111610784184
H           -0.41021566855842       -1.25050793525634        2.97092833794631
H            3.19709588249248       -6.15384056750770        2.88474076246991
H            5.20792549726241       -7.43089522907946        2.25027320371170
H            7.42638789961556       -6.38456755270742        2.43177130340893
H            7.63209215271563       -4.07463648142356        3.24805113668465
H            5.62659740935694       -2.81538547688358        3.88930753723886
H            2.28211761935021       -2.66158740307709        1.61093346589607
