49
 energy: -9.545010033170 gnorm: 0.000848275267 xtb: 6.5.0 (97a52f5)
C            1.23387740882768       -1.47725683373328       -0.23034026818450
N            2.07808419665753       -0.30017505326310       -0.02718208734895
C            2.18882948500507        0.61720107830055       -1.17717624064544
C            3.40093428771461        0.30908088074578       -2.04309605770674
O            3.59540802833821        1.23912619128808       -3.08957130408671
C            2.79537223302388       -0.10607932166292        1.16307379414788
C            3.70010211193533        0.95217972106554        1.30984266014036
C            4.40645893880713        1.12383696062259        2.47167344786652
C            4.24929523141071        0.25060080566288        3.55339833318794
C            5.01998236879958        0.46221699912943        4.75608569667053
C            5.00557405662904       -0.32570614498188        5.84803489908983
C            5.78950061642931       -0.11715144788693        7.03639087800469
C            6.65919105343112        0.88783678093411        7.29413901201797
C            6.95277530826416        1.96102027699797        6.46683904069554
N            7.15411029859445        2.84712108879768        5.74077394600872
C            7.26060209539529        0.66199627600871        8.66653166724159
C            8.80463206201728        0.45803241258720        8.66118890285000
C            9.53546721782386        1.65967501837588        8.46601859003888
N           10.14865099787995        2.63173763912238        8.33334079425480
C            9.20977261647329       -0.53914608950476        7.73654409606331
N            9.52943396239505       -1.35312301172508        6.97947053326210
O            6.61603390104808       -0.47720205367506        9.25298483365651
C            5.74186275338148       -1.05378882618337        8.24468484410536
C            6.26883368501676       -2.44514094972378        7.87468032884575
C            4.32214033835181       -1.13410861869525        8.81975890460564
C            3.33870227478591       -0.80259378388554        3.41092130894884
C            2.63245603416491       -0.97476484089445        2.24861874856298
H            0.88464455656811       -1.53152618083971       -1.25903703661680
H            0.36748916864786       -1.42980301883465        0.42619350687409
H            1.79937009631226       -2.38220764531193       -0.01884522986205
H            2.22730699675023        1.64579431336682       -0.81211740478135
H            1.27262882010961        0.55672403702791       -1.76942416269948
H            3.33380731111301       -0.70009955984697       -2.46939579387941
H            4.31441547138480        0.32045131906794       -1.43687800543522
H            2.81179624885795        1.27807266817243       -3.67025600780551
H            3.85249018895171        1.63726845309847        0.49597455301021
H            5.10109746649157        1.94145189172060        2.55979685208166
H            5.66057745359653        1.32433136113404        4.75713079947783
H            4.37461921335839       -1.19452317166768        5.84485064408772
H            7.00918015166901        1.51892727272110        9.31120489216293
H            9.07102976866906        0.08287837525625        9.66413529024473
H            7.27837283452288       -2.36695633783346        7.47623206587055
H            5.63884434072171       -2.92282137673100        7.12635284617145
H            6.30551563705652       -3.08228958207997        8.75625147249763
H            3.96648839820939       -0.13839209934572        9.07826084444726
H            4.31631247602349       -1.73730455132655        9.72573935069541
H            3.62740323260811       -1.57475193222620        8.10682165902564
H            3.18438476851013       -1.48731700477840        4.22504935520594
H            1.93388183728381       -1.78841238454551        2.17127020690909
