51
 energy: -9.625503192024 gnorm: 0.000439759339 xtb: 6.5.0 (97a52f5)
C            1.29200172523315       -1.23426716084721       -0.50583412323592
N            2.21095788287200       -0.22508730583619        0.01988138408155
C            2.37846247736099        0.98193566657947       -0.81239744410385
C            3.56900959304816        0.86791572716935       -1.75262980579677
O            3.82184155290044        2.05006610475260       -2.48721739404814
C            2.94913496887693       -0.44181234811495        1.18919677898266
C            3.89718036013464        0.48605554714467        1.64228713235814
C            4.62067312386983        0.26070859521541        2.78318424015778
C            4.44488958131810       -0.90725920724117        3.53822047058676
C            5.23363445215371       -1.11092322161529        4.72710504904754
C            5.23739794012921       -2.23202138241786        5.48632863772826
C            6.01717444035591       -2.43900045008575        6.66869932609885
C            6.81597854192645       -1.46855471942260        7.19064773118061
C            7.60317816043908       -1.62692317907637        8.36820163796097
C            8.36658974745830       -0.58927459084431        8.83357206346453
C            9.14799011055885       -0.71309322244428        9.97867910426030
N            9.79917978895900       -0.82032737222329       10.93709972381395
C            8.38511041122963        0.63472521654149        8.17094837821363
N            8.38441923919944        1.64889726513073        7.60066590900242
C            7.57969951524425       -2.94519337246637        9.08837091054788
C            6.26081030497196       -3.74856502171388        8.86743487964474
C            6.43680570376399       -5.18373975949589        9.39280487492011
C            5.10677962196665       -3.06585817942230        9.62017117105013
C            5.94329156912679       -3.78448858406846        7.33935956868029
C            3.49356808626364       -1.83362343632835        3.08852885040298
C            2.76750673106011       -1.60546728497540        1.94934996954417
H            0.90367607897195       -0.93840340587788       -1.47804650103042
H            0.45259951182033       -1.36404405902753        0.17433665488712
H            1.80872952570057       -2.18446333285645       -0.62476381819530
H            2.48299487052612        1.85434503970372       -0.16389301469292
H            1.46079862420883        1.15449527318146       -1.37994557483883
H            3.43583070098255        0.03234691237471       -2.45168882383378
H            4.48003066465432        0.64273369736661       -1.18581673089351
H            3.03808363584914        2.30145939367951       -3.01470616813299
H            4.06810814285301        1.38639422794979        1.08084086625549
H            5.34633920597148        0.98586614797003        3.10940561513186
H            5.87798048177070       -0.29840559624632        5.00651450263350
H            4.61988232317547       -3.05594588085644        5.17966757117832
H            6.85912831705896       -0.51179415763912        6.70757092419270
H            7.72478299719548       -2.78245066615465       10.16043830486242
H            8.43159065998734       -3.54640281316247        8.75613871987903
H            6.66548514761580       -5.18197647605897       10.45773982133125
H            7.24959728474718       -5.69265820481021        8.87628565495491
H            5.52828292829464       -5.76589117316781        9.24434736028400
H            5.30972570462966       -3.02366336333967       10.68944412587033
H            4.17272103818071       -3.60712740495982        9.47556966327186
H            4.96269402152082       -2.04634010114718        9.26528456918883
H            4.94815862566229       -4.21554536858480        7.19193759665740
H            6.64211818256332       -4.46477597606231        6.84240904476082
H            3.32231334175891       -2.73489802407873        3.64874440099896
H            2.04000235387394       -2.33109901208335        1.63258621073263
