38
 energy: -7.341510703011 gnorm: 0.000747946064 xtb: 6.5.0 (97a52f5)
C            0.96113572153415        0.23813617955858       -0.76779921514325
N            2.18706926624211       -0.11429132262900       -0.05284013410754
C            2.58430400759864        0.80667138060312        1.02873231913226
C            3.53458520660051        1.88964220340554        0.54126763426548
O            4.02887896152203        2.71343743008419        1.57872701000549
C            2.96655850664730       -1.22149319756062       -0.42600134975532
C            4.21413439532931       -1.46999328438166        0.15939331074200
C            4.97232185111309       -2.54812373515234       -0.21835581814042
C            4.51882861882242       -3.42824750017861       -1.19917858913352
N            5.28673314832279       -4.50834212907711       -1.58692047772387
N            4.90356653454967       -5.27292773726674       -2.48487007427150
C            5.68046592229348       -6.34372735871658       -2.88473351202960
C            5.27273708430292       -7.16112605616066       -3.93725349231602
C            6.05332543245714       -8.21733669867155       -4.34047135715887
C            7.25305930027670       -8.48311798726265       -3.70430362473646
N            8.08272875123497       -9.60599611963216       -4.13847166341659
O            7.70554740560841      -10.28564933971476       -5.10605532905772
O            9.13591032876255       -9.83994893849890       -3.52500966219615
C            7.66406580950472       -7.67825724198077       -2.65653945601262
C            6.88833230727889       -6.61966399491092       -2.25040017063043
C            3.27869500752721       -3.19081048945003       -1.78442457584781
C            2.51872774599781       -2.11395222333991       -1.40750576374541
H            0.59753423790654        1.21459248115917       -0.45535333455147
H            0.18735199226203       -0.49905110866453       -0.56450286057105
H            1.15091318399105        0.27660464274466       -1.83834553772631
H            3.04001597788564        0.23216294957657        1.83816161012088
H            1.68649870305009        1.25415192931250        1.46184308854839
H            3.05573304518719        2.51979243827344       -0.21949960057690
H            4.40669423958779        1.43802323216767        0.05344919574606
H            3.29778271048768        3.15797336149311        2.04956391721101
H            4.59246510572874       -0.80013170579292        0.90979102787112
H            5.93124300802793       -2.72973123094185        0.23433284151670
H            4.33985345326015       -6.94809359742916       -4.42942398195729
H            5.74621690833808       -8.85020334188988       -5.15573591077254
H            8.59900517023373       -7.89596546627011       -2.16893799535161
H            7.20126344209475       -5.98731926252662       -1.43853647206521
H            2.93024046795297       -3.87148982025025       -2.54064084094662
H            1.56023704047638       -1.95603734002656       -1.86812115522276
