38
 energy: -4.395792727104 gnorm: 0.122461883955 xtb: 6.5.0 (97a52f5)
C            0.49646353982121        0.53740059735514        0.38828875267342
N            1.44086319969615        1.43033615975021       -0.14718742791622
C            2.63445850917607        1.52902011963347        0.51174500137875
C            3.55241416136959        2.42015421548412       -0.06740246044561
C            4.72246923103621        2.42484705130183        0.53460708646274
C            4.13268192180014       -2.57257400495154        5.51251792327531
C            3.21848974003124       -1.95245286583750        6.18683242957306
C            2.35920864846025       -1.12805169014851        5.72632835413966
C            2.89296261616212       -1.29637046166692       -1.35421053763729
C            3.35763991271401       -2.50066285687524       -0.97038884988905
O            3.50395898268520       -2.76525418392730        0.21614721340811
C            9.50064165295382       -1.53031868148623       -4.56246055216935
N            9.63922625551406       -2.79722990035660       -4.71618764772099
C           10.72289567139849       -3.43087362072613       -4.48888398247549
C            2.83715273804681        1.76153901109844       -6.11701030593900
C            2.29961383178029        0.54970544374750       -6.37669543310827
C            1.67439305556538        0.31527335217257       -7.53197590291846
C            3.79859483682717        8.55943315846316       -9.11603779297760
C            2.72804988862438        2.73240811385446       -7.03380384925009
C            3.21677553359648        3.93143859970442       -6.86843469514878
C            2.79491381060457       -0.89279627550603       -2.62586281117568
O            2.38860477785777        0.16034178153387       -3.13074087419081
H            0.21047410396005        0.85688879908526        1.39076991922662
H            0.92127867794522       -0.46540413702966        0.44024415169662
H           -0.39013860927348        0.51698395055932       -0.24466530490179
H            6.12865068840513        1.40672494307474        0.25943454301722
H            5.45077435592323        3.53591042574432        1.66102334460559
H            7.90392376755422       -0.75847491512839        7.55365402471303
H            2.49743158690474       -6.43558692380362        6.71058956630802
H            1.83234075255242       -4.09224457779757       -0.42203140689068
H            4.25025783424395       -3.28563392618224       -1.88102232406344
H            8.92757772315014        0.89986862085593       -4.85915693101424
H            8.82199519872505       -3.34153357789379       -5.03861611631341
H            2.01553819322029       -0.82483646607741       -6.58448742203187
H            2.21763929154144        2.47993322907502       -7.95318021180212
H            3.07614593922330        7.33104802480594      -10.31366784226458
H            4.74360770930622        8.77489787655745       -7.53019769457759
H            6.25636027681859        4.72987559295863       -3.01610393267429
