71
 energy: -15.135481092837 gnorm: 0.000198148405 xtb: 6.5.0 (97a52f5)
C            0.69639448099441       -1.93311657209228        0.62757384864361
C           -0.64843531805835       -1.96103661241999        0.49436558269996
C           -1.51719071246561       -0.85471356804141        0.10551731547220
C           -2.64317110418944       -1.10812370183989       -0.68802096435733
C           -3.47527572629476       -0.09422941291468       -1.09164625003179
C           -3.23566447065414        1.22306688102593       -0.70478533550094
N           -4.08530091777218        2.29077754501157       -1.13019544091989
C           -3.58813009091182        3.63983255664383       -1.17641612924886
C           -4.37934908460766        4.69878137030497       -0.73686848483996
C           -3.90053056962840        5.98969754621664       -0.75519856596433
C           -2.62370632406508        6.24848803513052       -1.21508468884871
C           -1.82925476890569        5.21077664831596       -1.66307844188515
C           -2.30719400663256        3.91943122990739       -1.64856046045160
C           -5.45478880792510        2.04245121931569       -1.49094341703418
C           -6.02256226509881        2.68574945092104       -2.58838062951658
C           -7.33534451713608        2.45761083812216       -2.93556081277553
C           -8.10686367843024        1.58581506813898       -2.19165652449553
C           -7.56056581246621        0.94507510452791       -1.09625536415115
C           -6.24800417944610        1.17187126586058       -0.74684553653885
C           -2.13270467290412        1.47501206757807        0.10868893950517
C           -1.27960215775974        0.47014402231969        0.51338105532384
C           -0.10502081988098        0.78925189537504        1.37766617539585
C            1.18982450820118        0.52751221100296        0.67903238434267
C            2.01596872907908        1.57412780988471        0.32473284433217
C            3.25518300751441        1.36195212759359       -0.27791783082004
N            4.07446229365604        2.46197102086592       -0.67859397332882
C            5.04341453063035        2.31076403088316       -1.73104837069156
C            6.29753202120079        2.90750215012246       -1.62369671672485
C            7.22801055038491        2.77441140303908       -2.62997415825412
C            6.92211517790272        2.04763965019247       -3.76442757838091
C            5.67933545423667        1.45729110501442       -3.89020993511476
C            4.74711009813462        1.58897960060738       -2.88530386768702
C            3.88541697341216        3.76596238293764       -0.10132326898721
C            3.85593845915128        4.89698021510636       -0.91409992663714
C            3.65982387041490        6.14735416409749       -0.37217892680883
C            3.49384526919731        6.29219725152593        0.99166598758634
C            3.52923129238000        5.18114190101874        1.81231997159383
C            3.72564189864954        3.92942094222764        1.27281106891754
C            3.66019666186864        0.04608356297298       -0.49566810931828
C            2.83836415491068       -1.00500967198741       -0.17656328148129
C            1.57264018019124       -0.79340777961661        0.38403920327585
H            1.19644265457675       -2.86467740983898        0.84042476829629
H           -1.14004509467658       -2.91423540601028        0.60979553382891
H           -2.83940339627968       -2.11953726757366       -1.00060683101787
H           -4.31618611910046       -0.30539802218119       -1.72843271718095
H           -5.36949192178070        4.48952279175360       -0.37122694179248
H           -4.52174425720070        6.79886234042155       -0.40706916801215
H           -2.24818790591421        7.25878112428428       -1.22475198011424
H           -0.83333577898448        5.41196362604975       -2.02301633052924
H           -1.69599296232488        3.10910920048152       -2.00612572968853
H           -5.41473637845205        3.36064918824575       -3.16546506494975
H           -7.76126474903102        2.95951605405353       -3.78909627428893
H           -9.13412784710158        1.40702882210583       -2.46467558853691
H           -8.16333798981985        0.26802462789138       -0.51310096024118
H           -5.82166240223399        0.68664920618424        0.11380683052530
H           -1.94896276089039        2.48187558490267        0.43584653282375
H           -0.15282575602787        0.18997236319808        2.29353168616990
H           -0.14999829886649        1.83371730620356        1.70463646216859
H            1.69133214444317        2.58213566458626        0.50571858503345
H            6.52927817650498        3.47059290002768       -0.73647282948464
H            8.19640525035522        3.23750720978933       -2.53223930811582
H            7.65144160096136        1.94307356202997       -4.55116910855592
H            5.43857905118305        0.89390864473922       -4.77703306447879
H            3.77242039924790        1.14408543386269       -2.98488023303546
H            3.97930444448010        4.77545045434358       -1.97615547959338
H            3.63403350207229        7.01359220036024       -1.01312232908767
H            3.33833532674322        7.27117669021969        1.41495350319244
H            3.40351406795232        5.29442617420325        2.87680560620858
H            3.76450456989741        3.06143668248917        1.90774493145484
H            4.62877922149871       -0.13640193146396       -0.92689369336073
H            3.15366360187413       -2.01413477025175       -0.38018219392997
