100
 energy: -21.307794953911 gnorm: 0.000185996260 xtb: 6.5.0 (97a52f5)
C           -0.61480533234463        1.52988627582311        0.33927890268733
N            0.73663634328266        0.97082588728514        0.40294663769978
C            0.91425727141658       -0.44135687501957        0.23921004305303
C            1.77855149235133       -1.14699634426904        1.07797586278883
C            1.95826727781519       -2.50334104949138        0.92749522416514
C            1.27949754760737       -3.18613925415927       -0.06325749051313
C            0.41931799049852       -2.50503169341140       -0.90314961509595
C            0.23622212184093       -1.14821850545244       -0.75529820853521
C            1.83025894199845        1.83913674813216        0.70195350826973
C            3.12675180786620        1.49118289320935        0.32161510416140
C            4.19237158926194        2.30714547752090        0.60993708683137
C            4.00404924017189        3.50765823910219        1.28942207546132
N            5.12788436155107        4.33197143607851        1.64385914809803
C            6.16987878653726        4.54827955542866        0.67890437957492
C            7.48798471097562        4.73424922650814        1.09089450966490
C            8.48901838411351        4.95312062762178        0.17152750598119
C            8.19387282569397        4.98824360890032       -1.17764332757331
C            6.89233880660303        4.80336512019502       -1.60310272740832
C            5.88934318797992        4.58582549864935       -0.68495401214101
C            5.20305625623627        4.98675178282612        2.91547207837812
C            5.64376452568915        6.31269478304564        2.96149988406888
C            5.80532406408782        6.98324262677555        4.14493848594578
C            5.55063433444462        6.34785785931601        5.36706985290033
C            5.75239445731257        7.00450817765783        6.60991859217281
C            5.55790455057864        6.35202136473275        7.78271049023150
C            5.13942183145336        4.99516815194679        7.82026403907672
C            5.03169296789448        4.27707736488566        9.04390793135937
N            5.70446359579966        4.76650061214120       10.21574496865621
C            5.12091498747619        4.70288392337451       11.51972899910469
C            3.73761287296072        4.66599864822547       11.67453966384804
C            3.17149397241537        4.61297637528178       12.92875699341770
C            3.97621797228427        4.59496450489032       14.05174161373109
C            5.35059671051659        4.63038476753744       13.91461264227634
C            5.91829982757766        4.68424748887770       12.66114514607050
C            7.07011263680517        5.19372864662764       10.02328772358831
C            7.88609045101571        4.45465560969583        9.16638659466765
C            9.04974218778204        4.98514834830208        8.67342480564501
C            9.44518196985147        6.27692995832639        9.02085749973633
N           10.51319311771063        6.90450074499264        8.29447025332891
C           11.57589344357602        7.58565905258635        9.03176212801630
C           10.52075010411203        6.89843672762280        6.86837706429389
C            9.34007687776638        6.65983851452832        6.16243916148411
C            9.32552284422573        6.63928341370888        4.78682324768277
C           10.49070320169230        6.86051632525150        4.08049358210329
C           11.66869394417758        7.10804491698240        4.75959323674491
C           11.68599893380786        7.13028179902048        6.13719040385427
C            8.68348168453563        6.97803548901459        9.96004620079977
C            7.51588714208587        6.44410379271294       10.45547748983090
C            4.50324882112624        2.98115416046041        9.01968006070791
C            4.19084158251831        2.35764386678278        7.83669329703934
C            4.40227138151629        2.99706140846291        6.60401988113863
C            4.20717326976407        2.33839571796328        5.36022318836870
C            4.46542282128237        2.96738915421053        4.18493195539082
C            4.90380058859304        4.31864253456216        4.13476705432404
C            5.09460171518904        5.00559341796405        5.36077666673033
C            4.86354720611664        4.33600790200853        6.59781344744424
C            2.71025277363514        3.86853706214789        1.65672156862315
C            1.64342020483994        3.05223275017250        1.36679427209121
H           -1.31999280876052        0.80447363312453       -0.06012169465139
H           -0.62653377790187        2.41126530218134       -0.29950803651963
H           -0.95135642100114        1.80846373349270        1.33615276626523
H            2.29620502550593       -0.61382971354345        1.85627055908425
H            2.62881457972485       -3.03358179864636        1.58407920273719
H            1.42174983650495       -4.24799160843983       -0.18156473880712
H           -0.10645284267249       -3.03703021501101       -1.67933361105482
H           -0.41166985175339       -0.61581503664128       -1.42916724175957
H            3.28225415531342        0.57102905930995       -0.21351434838734
H            5.19042711213975        2.02143813840435        0.32692874993791
H            7.71365314085112        4.69986613270608        2.14242238830164
H            9.50383816370747        5.09709660317492        0.50494863608067
H            8.97781387647873        5.16001206725620       -1.89711647445345
H            6.66133699017518        4.83147031956679       -2.65555433870080
H            4.87270838315502        4.45321057701312       -1.01128491842577
H            5.85654297795306        6.81035513123911        2.03136518100868
H            6.14687208274115        8.00416241986277        4.14780618108289
H            6.08062212122741        8.02965992648863        6.60716160778196
H            5.72085366374493        6.86290623570376        8.71426486122345
H            3.11503549641421        4.69024578704915       10.79736431350605
H            2.09910210622914        4.58726984107722       13.03453679376740
H            3.53255835036035        4.55378292017213       15.03317093514653
H            5.97933265058118        4.61533579453594       14.79002221029742
H            6.98819283586357        4.70441794034231       12.55052288494051
H            7.54841827299108        3.48740676458224        8.83677195700098
H            9.64335473017632        4.43333630056827        7.96528635817334
H           11.32640880580404        7.65090983302779       10.08903103676284
H           11.71503763965343        8.59371071493156        8.64519148054637
H           12.51004318495611        7.03516713407021        8.93717292640283
H            8.42675957238012        6.50694362132931        6.70959331397088
H            8.40176945875677        6.45839003528254        4.26268656627258
H           10.48004822537066        6.84420809294205        3.00287732899553
H           12.57833081704954        7.28289767390168        4.20832929330781
H           12.60824366428319        7.31452897599080        6.65885970134392
H            8.98189622010172        7.97484054207335       10.23363831180616
H            6.89113912810710        7.01848639368620       11.11715996836402
H            4.41314419778287        2.44779866390956        9.94992316605938
H            3.82184503329569        1.34651968175114        7.84086534488503
H            3.86972794712401        1.31632589397027        5.36493013515175
H            4.33960456769255        2.43326204200313        3.26227255311517
H            2.56160023186225        4.79545720904526        2.18253489781464
H            0.65310127015630        3.34074061839963        1.67066701947649
