73
 energy: -12.736896588647 gnorm: 0.000940912816 xtb: 6.5.0 (97a52f5)
C            1.10187388011376        2.63236387610733       -0.20848290342713
N            0.76466543995048        1.21023169856253       -0.19215226752454
C            1.66600870951294        0.19312965253502       -0.19723836038490
C            3.04273644861707        0.38510893522368       -0.19983476247634
C            4.00849095878116       -0.59882761850075       -0.21863734449848
C            5.38946852112818       -0.34194974274948       -0.21363096501014
C            6.33394158822683       -1.37206788849358       -0.35937135691406
C            6.06117005615078       -2.70003475565929       -0.61406739679578
C            7.01265496522030       -3.71340544995343       -0.70989817928020
N            8.31888795453477       -3.69240153810115       -0.32099831016413
C            8.98534160064251       -2.68315976404580        0.50010754559433
C            8.98296278990937       -4.91414398248048       -0.63997912260106
C           10.30762059130436       -5.29155882998315       -0.46971570550234
C           10.69718465279642       -6.55204784886584       -0.86970670379509
C            9.78611822343811       -7.42934669936236       -1.43447717665333
C            8.46678051554047       -7.05633195445364       -1.61292511723694
C            8.07144562254919       -5.79643475413850       -1.21570113125664
C            6.71591087335629       -5.10468356919722       -1.28791509149294
C            5.68720435629639       -5.84634780738215       -0.42112015089049
C            6.24274356714099       -4.99735162907296       -2.74565347463891
C            5.89439540091644        1.04182820058152       -0.05253763708462
C            6.81450571453427        1.57319716478956       -0.95715896344213
C            7.28163539014896        2.85827181085450       -0.81201720864683
C            6.84957691664058        3.64466276639095        0.23623460120327
C            7.38328648507412        5.06517748395298        0.38379837901603
F            8.68368064148815        4.99748475946393        0.71607045319787
F            7.23681265669405        5.70117797893225       -0.79123583114384
F            6.69069758086438        5.70096048857374        1.34451668718759
C            5.95161842153337        3.12852706793672        1.14864163840905
C            5.47998422375946        1.84433024635686        1.01140080784945
C            0.88016035458542       -1.12747959429385       -0.18806409809692
C            1.18154467342968       -1.94865210488834        1.07552063366232
C            1.13227349033841       -1.93534729105662       -1.47079809770672
C           -0.57093672612575       -0.65043056433206       -0.15943001956731
C           -1.75274210357513       -1.36080061525558       -0.13736892887728
C           -2.94910709034676       -0.66844709111487       -0.11633000531896
C           -2.96254240772699        0.71646321830771       -0.11684038694114
C           -1.78506963775962        1.43304670223166       -0.13996045809875
C           -0.58116526238734        0.74293916866172       -0.16334023126391
H            1.61952536639436        2.90091141241490        0.71010001231173
H            0.20692978169699        3.24269784436132       -0.29266314115893
H            1.74507148419049        2.85201338433169       -1.05824634228268
H            3.38216765848941        1.40358639889426       -0.19702054910605
H            3.68862723985763       -1.62046181841556       -0.25201244132782
H            7.36371953579263       -1.07352895472245       -0.31597081831001
H            5.04466997579571       -2.97667544310977       -0.82343456461882
H            8.27922974044350       -2.23931690500764        1.19809661792803
H            9.41919556796072       -1.91130904251813       -0.13169931846968
H            9.77859860692395       -3.14045229888660        1.08602295583793
H           11.01633586012698       -4.60400467867070       -0.04461386474674
H           11.72275488191486       -6.85768503648832       -0.74241152092994
H           10.10800994763788       -8.41115772530262       -1.74011613915120
H            7.75370451131842       -7.73012895599339       -2.05406234169486
H            6.02836964086037       -5.90143844011479        0.61171420400304
H            5.53680026928211       -6.86268741207780       -0.78181313930659
H            4.72425848748934       -5.33844533233204       -0.43297738413010
H            6.98105304590239       -4.46960848201943       -3.34783701774374
H            5.30130312645446       -4.45460776902391       -2.81320861451731
H            6.09529297421174       -5.98479821202420       -3.18017032171436
H            7.14495681273156        0.96826312779823       -1.78361404002908
H            7.98672767970030        3.27010423201461       -1.51444185344072
H            5.62925050007594        3.74863265826287        1.96799930451246
H            4.79581203391630        1.43972161321789        1.73711623864044
H            2.21800538386720       -2.27632777221319        1.10750066082818
H            0.55021267569603       -2.83475430995619        1.12025632772327
H            0.99026523770318       -1.35434283872355        1.96793276179250
H            2.16786477608281       -2.25736516254394       -1.54908204657019
H            0.90117789028064       -1.33349276445153       -2.34866363356354
H            0.50343923332444       -2.82393942247569       -1.49780920360813
H           -1.73493554905664       -2.43631291588057       -0.13750043100055
H           -3.87932583059152       -1.21188969024750       -0.09952131547488
H           -3.90434570914027        1.23990572562849       -0.09912783121778
H           -1.79662287465872        2.50770486020294       -0.13795456884421
