70
 energy: -12.285075772772 gnorm: 0.000781526576 xtb: 6.5.0 (97a52f5)
C            1.05905968190702        2.62405616983104       -0.18095805440788
N            0.74493240211133        1.19723140760241       -0.17829628725287
C            1.66165355906940        0.19348557789515       -0.18631437324076
C            3.03523504424465        0.40683503089545       -0.18800484050005
C            4.00994242897556       -0.56796688497652       -0.20814054514524
C            5.39035998404193       -0.30764662033757       -0.19818095585357
C            6.33194885438148       -1.34040796528919       -0.34672449500939
C            6.05380128079644       -2.66241640618510       -0.62710003294853
C            6.99626477275688       -3.68416759686994       -0.71704614806073
N            8.29384596187093       -3.68255300323638       -0.29988378398407
C            8.95717680478157       -2.68489172182446        0.53735125230831
C            8.94827315861401       -4.91119479605509       -0.61399317472125
C           10.26340608930848       -5.30887367192228       -0.41679402120696
C           10.64747370545575       -6.56830744788052       -0.82602720286280
C            9.74003962840801       -7.42507710824457       -1.42747550801125
C            8.43005826013366       -7.03249043278262       -1.63156646087522
C            8.04010629933126       -5.77426824533331       -1.22371218851565
C            6.69545645879550       -5.06453222010729       -1.31816343731424
C            5.63797635783925       -5.80302739294464       -0.48473503247912
C            6.25609782700273       -4.93361484605042       -2.78401313078943
C            5.89807080455404        1.07252519471874       -0.02174388586315
C            5.45656870419982        1.88042961002186        1.02757505725498
C            5.94157081283847        3.15657125172736        1.18754410607638
C            6.88498148277318        3.66629432416837        0.31236829366020
F            7.35938960460805        4.92655114140782        0.47097722222546
C            7.33847914400248        2.87157745018970       -0.72613596537043
C            6.85728133434303        1.59453880765424       -0.89113079510336
C            0.89676886229794       -1.13975638672489       -0.18399021937221
C            1.20776713040155       -1.96082849533323        1.07689604562150
C            1.16461096209033       -1.93997920008196       -1.46796378597091
C           -0.56165487245498       -0.68617197375625       -0.15734601405937
C           -1.73178202986014       -1.41557219579974       -0.13148999275063
C           -2.93912847834384       -0.74232438558226       -0.10687147205970
C           -2.97452506434831        0.64241769918621       -0.10764206564470
C           -1.80846219020355        1.37770789379501       -0.13290712448047
C           -0.59344349923867        0.70707628314831       -0.15813327538256
H            1.65305673752434        2.87443302878789        0.69531852323214
H            0.15231755224691        3.22221308020029       -0.16339947185623
H            1.62134811431345        2.87734231717697       -1.07721989665560
H            3.36107024546472        1.42963437205567       -0.18639758611351
H            3.69586188336364       -1.59138144075507       -0.24326483158238
H            7.36297202856393       -1.05012439105661       -0.28182648515723
H            5.03984097465589       -2.92528083210847       -0.86488881848884
H            8.24839203572985       -2.24719332460386        1.23663091438898
H            9.39530028005104       -1.90535057058915       -0.08159750558492
H            9.74750111020547       -3.14881666752399        1.12184073061764
H           10.97013722601818       -4.63752013448301        0.03624244650435
H           11.66573365409015       -6.88853790903215       -0.67908092841005
H           10.05838399207017       -8.40525244472039       -1.74161556054369
H            7.72029145097175       -7.69046479071851       -2.10086807502967
H            5.95618100044778       -5.87926377120670        0.55390411205670
H            5.48005714070664       -6.81121239860018       -0.86449513201933
H            4.68349496243257       -5.27993231487488       -0.50883268779386
H            7.01133657454061       -4.40319557776260       -3.36206748090914
H            5.32029232523288       -4.38300547570024       -2.86448578080229
H            6.11160366842656       -5.91391587074428       -3.23527847044339
H            4.74113825073473        1.48410941404268        1.72702691197228
H            5.60091597115641        3.77812332320507        1.99657847811448
H            8.07359090351628        3.27475602718905       -1.39995591447096
H            7.20933887308176        0.98672127769643       -1.70632272872406
H            2.24979021309225       -2.26987624273854        1.11134100929339
H            0.59244211273097       -2.85839504626634        1.11475743981113
H            1.00195082497687       -1.37439170046828        1.97116638777414
H            2.20470479269922       -2.24776723913393       -1.54334977577127
H            0.92822652986814       -1.33910646023556       -2.34495433744862
H            0.54821132128986       -2.83709938585016       -1.49928167826107
H           -1.69596259029224       -2.49060113686323       -0.13042890579151
H           -3.86039439310274       -1.30051367326566       -0.08563625354080
H           -3.92428753109449        1.15095140604268       -0.08751839155433
H           -1.83735950321066        2.45198570801117       -0.13233796471344
