73
 energy: -12.740657992399 gnorm: 0.000693151612 xtb: 6.5.0 (97a52f5)
C            1.18050442231529        2.62905408754227        0.02630621676188
N            0.81525679601391        1.21879201860980       -0.09162981386615
C            1.69930740010745        0.19148677243590       -0.19055247565215
C            3.07534860408107        0.37502634096569       -0.24743372225690
C            4.04310550422685       -0.60676704987665       -0.28331531222118
C            5.42402788973984       -0.34608971109005       -0.27455861580610
C            6.36664445516186       -1.37801561203047       -0.41707403218418
C            6.09024326097689       -2.69529763863085       -0.72134302319366
C            7.03078512347116       -3.72209690608811       -0.77275190855721
N            8.29674168925720       -3.73488387045041       -0.26864950691003
C            8.89940523624790       -2.75691830179981        0.63543044789035
C            8.96116231390441       -4.96657569727545       -0.54550709917120
C           10.25056909070185       -5.38250027675870       -0.24471882160766
C           10.64731440566370       -6.64736273466021       -0.62308452373418
C            9.77757978699426       -7.49139968213385       -1.29374348126968
C            8.49347233062411       -7.08070175199547       -1.60010261644780
C            8.09070506696250       -5.81663696502336       -1.22414789945714
C            6.76437209595919       -5.09127979756694       -1.41451648008001
C            5.63680876952369       -5.83006550587197       -0.67792990857321
C            6.44506199016087       -4.93545118957547       -2.90918143500721
C            5.92371786805184        1.03393312814012       -0.08844911386891
C            6.93186027549446        1.55175512580679       -0.90263128656918
C            7.36228034389267        2.84977397069892       -0.74951650991984
C            6.79515414949465        3.66055110499118        0.21169936791901
C            5.80496465632398        3.16738485104114        1.03577409148400
C            5.14585050428282        4.07516238163827        2.06792238390854
F            6.09183256597483        4.52771934508913        2.90729117315046
F            4.56563601491024        5.09964829935471        1.41999623210462
F            4.21902325425373        3.37172643817172        2.74190878304823
C            5.39031500949469        1.86392444227393        0.89717524985439
C            0.89900389965245       -1.11962015011431       -0.19086879358899
C            1.22741587795402       -1.97391535204799        1.04381176257499
C            1.10814355788925       -1.89926933984192       -1.49822624432614
C           -0.54453211633948       -0.62560558983865       -0.10609096858769
C           -1.73575294816121       -1.32016828399828       -0.09027173190114
C           -2.92146393523129       -0.61281600149914       -0.01906191720131
C           -2.91542936001173        0.77122742138953        0.03360889097638
C           -1.72856968043866        1.47226407449340        0.01852844163238
C           -0.53528960118514        0.76700187771294       -0.04892862037038
H            1.89387893633601        2.75926910620014        0.83794176559963
H            0.30797299703019        3.23977789557433        0.23980152659075
H            1.62883465006459        2.97402278889856       -0.90271743939620
H            3.41136968163287        1.39406153234809       -0.26949406418483
H            3.72563144022164       -1.62968216743983       -0.31173096084043
H            7.39713550961986       -1.09262939361293       -0.32360544563671
H            5.08680559728150       -2.94733564204608       -1.01094889526208
H            8.13787667298969       -2.31430056241891        1.27334454243381
H            9.40493971991857       -1.98010217205368        0.06626580664237
H            9.62572519402715       -3.24157358953844        1.28277901391085
H           10.92792111521378       -4.72143875295340        0.26498775729794
H           11.64583946088837       -6.98266565086551       -0.39552237559524
H           10.10466624894410       -8.47698160538666       -1.58111657245578
H            7.81261800971979       -7.72968243496262       -2.12194705872743
H            5.86906768747578       -5.92013572753886        0.38222816191523
H            5.50258593746134       -6.83278413356426       -1.08069370643210
H            4.69101387302162       -5.29945796908379       -0.77359523297868
H            7.25161907485734       -4.40921749711994       -3.41777583346837
H            5.52648727832234       -4.36973075943376       -3.05661110942385
H            6.32363314706366       -5.90768582998488       -3.38425657815316
H            7.35535046896973        0.92970523547558       -1.67165647017112
H            8.13656630049142        3.23861979401352       -1.39061310041448
H            7.11112855167391        4.68323247987970        0.32908455113546
H            4.63843891820900        1.48673251531432        1.56699882307488
H            2.25939817161846       -2.31673752793649        1.03511221441879
H            0.58483512681277       -2.85189757781239        1.08837701759443
H            1.07279066943594       -1.39776107018449        1.95503345242727
H            2.13983081413733       -2.22381180078681       -1.61245284631259
H            0.85551981316784       -1.27642835971009       -2.35522504876555
H            0.47396965774200       -2.78398955401780       -1.52679925696750
H           -1.73324673507901       -2.39491121758168       -0.13446718735849
H           -3.85890418906246       -1.14379679352211       -0.00678821292760
H           -3.84929760466854        1.30641758190526        0.08576042306523
H           -1.72443876395388        2.54648458774813        0.05214516038456
