70
 energy: -12.302862568807 gnorm: 0.000736330958 xtb: 6.5.0 (97a52f5)
C            1.09233881696264        2.62744802881442       -0.12861416780987
N            0.77186574139510        1.20233602915751       -0.15655948297298
C            1.68374556100054        0.19447873801917       -0.17146920538900
C            3.05840700691902        0.40063000012211       -0.15789157072173
C            4.02872949225477       -0.57837272483118       -0.18496446853747
C            5.41014620672980       -0.32423604496840       -0.16284321410399
C            6.34893972282330       -1.35895204211947       -0.31568472764883
C            6.06719194274389       -2.67808031384424       -0.60546235735070
C            7.00592966627720       -3.70246034273671       -0.70657840425287
N            8.30566720159410       -3.70914069837581       -0.29638143571093
C            8.98002567037476       -2.71524299819864        0.53650683191680
C            8.95200721060242       -4.94072385446692       -0.61777417227586
C           10.26598805780917       -5.34663603095643       -0.42880288844013
C           10.64042829592263       -6.60735815279817       -0.84360827514500
C            9.72479566808171       -7.45715855368975       -1.44301139568205
C            8.41616537295672       -7.05594108693017       -1.64016388352359
C            8.03601203103277       -5.79653680491508       -1.22647580318198
C            6.69478030297632       -5.07922932356283       -1.31112151095963
C            5.63791265309865       -5.81522474555183       -0.47530098351605
C            6.24788263862602       -4.94082801294554       -2.77368498530555
C            5.92105604988408        1.05392121610398        0.02532503508747
C            6.88100404600714        1.58024988510482       -0.84112905330887
C            7.36129788176908        2.85836660286524       -0.66927855409170
C            6.90085500076229        3.63771797334735        0.37230540293962
C            5.96030601386577        3.13244644368176        1.24659387335972
C            5.47720000082903        1.85486539363818        1.07938639622204
C            0.91299259726935       -1.13515249423918       -0.19969012620729
C            1.20869915163055       -1.98022905915219        1.04864557636159
C            1.19011387862633       -1.91370722245045       -1.49457060070312
C           -0.54366221124372       -0.67542835079185       -0.17859969394315
C           -1.71729134039826       -1.39980217070618       -0.17393283641604
C           -2.92191437223308       -0.72142488919143       -0.14624863813917
C           -2.95095475785827        0.66348003671947       -0.12268032069470
C           -1.78119691993295        1.39368526548265       -0.12708891691417
C           -0.56902743536620        0.71791728344838       -0.15633479437234
H            1.65032326040222        2.86421380500548        0.77468431720410
H            0.18848206410190        3.22996277587676       -0.14330527099747
H            1.69291771696236        2.88951100753949       -0.99713952531497
H            3.38906875832071        1.42166592029884       -0.13656531948861
H            3.71023213585643       -1.59967064441257       -0.23692209852731
H            7.38054252909716       -1.07202397398213       -0.24633562724290
H            5.05156907382048       -2.93732110746806       -0.84047881937023
H            8.28197212576155       -2.28404622205268        1.25045021977273
H            9.40587612622987       -1.92979612848642       -0.08381883890021
H            9.78235391031690       -3.17955217445343        1.10425973040463
H           10.97890669441814       -4.68077590828255        0.02274713835768
H           11.65732720638388       -6.93436991026096       -0.70209212750626
H           10.03551385410202       -8.43848858583737       -1.76112088165520
H            7.69993306787246       -7.70793520694513       -2.10812508128471
H            5.96072191715662       -5.89706474884923        0.56150977018020
H            5.47307098898361       -6.82120844349159       -0.85814681612655
H            4.68596881966450       -5.28718629646655       -0.49282641434774
H            7.00296564589995       -4.41333581538492       -3.35471302473800
H            5.31498876820937       -4.38419514822067       -2.84676244544413
H            6.09465019725339       -5.91885077282124       -3.22717039611520
H            7.23290798156875        0.97624326535119       -1.65922719993819
H            8.09741968208151        3.25243728640017       -1.35054965366170
H            7.27786714117077        4.63837229812513        0.50493206809454
H            5.60622243958295        3.73862711217395        2.06415687670942
H            4.76112459415515        1.45315474225589        1.77513056428480
H            2.24881517621157       -2.29543311786497        1.08635197926541
H            0.58851516865041       -2.87513738854523        1.06477983349943
H            0.99791599382305       -1.40925554077260        1.95169865376955
H            2.22951629143556       -2.22537963189191       -1.56436363684777
H            0.96592360093406       -1.29625214858050       -2.36322270075256
H            0.56960133172315       -2.80693879385325       -1.54808842943059
H           -1.68608964779315       -2.47486990160846       -0.19068185625906
H           -3.84591883623519       -1.27543391681619       -0.14081067412906
H           -3.89845927447857        1.17606567928594       -0.09965913845877
H           -1.80513334741917        2.46791065594286       -0.10674182356140
