57
 energy: -10.173996570133 gnorm: 0.000492966158 xtb: 6.5.0 (97a52f5)
C            1.22147246095642       -0.04019378607844       -0.33837511347073
N            2.66619349914947       -0.08012430358202       -0.09089184154266
C            3.45366447051125        1.02483570813425        0.03568866579221
C            3.06160780179680        2.36135074117400       -0.05767480099517
C            3.94104279582766        3.40313964451489        0.08897621407243
C            3.60353584759366        4.76770605961497        0.00568747603430
C            4.59319070218541        5.77077933457672        0.03272212334795
C            5.94708577929091        5.57208213996383        0.14658804991019
C            6.92497856685985        6.57520836688066        0.18237481188283
S            8.54862112919966        6.21087294438394        0.70510329897316
C            9.06652562550463        7.87727713630622        0.57236418315814
C           10.29856253577207        8.43546894469265        0.86587676147072
C           10.47817953130437        9.78837100579584        0.69488269211080
C            9.43541020668006       10.58535391131667        0.23702855539908
C            8.21026628402916       10.03831770750152       -0.05932697236443
C            8.01734739041242        8.66384547539354        0.10147398137545
N            6.84471116130078        7.89832175683541       -0.14631348026776
C            5.71799584724588        8.51179143695925       -0.85594912372764
C            2.18986587204480        5.18669678205921       -0.11065416800474
C            1.21483610182724        4.69562223195562        0.76166954723755
C           -0.09433837882731        5.09988569485580        0.65465953353436
C           -0.46817673909440        6.00796948568032       -0.31503080234684
C           -1.92516508859906        6.43269971807699       -0.43818014126818
F           -2.58195910896992        5.49581763316222       -1.13977845481156
F           -2.44958977479780        6.54110576667971        0.79307254464175
F           -1.98504943356844        7.61433138663421       -1.07275975596285
C            0.48241296011161        6.50722426609388       -1.18261861402565
C            1.79427986555660        6.10937322146721       -1.08236522553175
S            5.09687848002893        0.53066849805373        0.34479379920989
C            4.69483755942971       -1.17248208581828        0.27734826083684
C            5.51842188167552       -2.27387557623701        0.43295399500220
C            4.97718481549223       -3.53427906134291        0.32908736484481
C            3.62173666330534       -3.70116190855962        0.06867571268649
C            2.79667579745200       -2.61331747993139       -0.08551225527239
C            3.33323332805473       -1.32862721952746        0.02373522174238
H            0.80945285984154        0.93572404573437       -0.09897934920878
H            0.71803653496249       -0.77424112900799        0.28640027955881
H            1.02161742598575       -0.26176806903243       -1.38440064673154
H            2.03574267593289        2.58213360344911       -0.28217032442455
H            4.96813079814152        3.14186235428373        0.25797142276282
H            4.23388190517726        6.78196983737904        0.02213622622172
H            6.30929573743516        4.56920089507788        0.28268098864092
H           11.09559551739361        7.80693021692316        1.22432506799223
H           11.43298345236632       10.23445138048400        0.92086251167665
H            9.58969088613659       11.64526122983827        0.11630501377590
H            7.40071060870183       10.66244292616939       -0.39242638945724
H            6.06640139500035        9.33431867301926       -1.47524287832853
H            4.98911120481904        8.89261666262525       -0.14397104934086
H            5.25207587589514        7.78653412465668       -1.51863848061353
H            1.50581093062909        4.01389055404869        1.54229348320226
H           -0.84479857217417        4.72331443467183        1.32984206837586
H            0.17656561369609        7.21430467902497       -1.93581037048268
H            2.52759419707753        6.49227674987806       -1.77078896914158
H            6.56672107289323       -2.13093176648848        0.63148398597159
H            5.60881680994734       -4.39946289141024        0.44816849530203
H            3.21456186694086       -4.69570708102948       -0.01388248379883
H            1.75003476645924       -2.74374700798225       -0.29438064561517
