44
 energy: -9.337886779583 gnorm: 0.000532890133 xtb: 6.5.0 (97a52f5)
C            3.51997577696145       -0.22247627380849       -0.21595373999811
C            2.75238684652865        0.87965314587086       -0.25906084053753
C            1.33987797735694        0.84058180889246       -0.15264757502325
C            0.62157016672822        2.06702746364800       -0.22042856762444
C           -0.72372026565085        2.10369090948567       -0.12085812249682
C           -1.47080046909264        0.91075418980250        0.07601771690394
C           -2.87062612935994        0.96227198509713        0.21159446887330
C           -3.59557119184519       -0.17267420717654        0.43481334769676
C           -2.94635570314597       -1.39856586901247        0.53594620358944
C           -1.58808238922170       -1.47308494079497        0.40231449806214
C           -0.79957312560439       -0.33377036456556        0.15490393915017
C            0.64239574604435       -0.37403831306023        0.00807224844799
N            1.37325680538925       -1.55186480570045        0.00705977277673
C            0.87156617162215       -2.89295303652144       -0.06756644688568
C            0.84256941723049       -3.70371154361245        1.06169040195064
C            0.38624122668825       -5.00058212840811        0.97687855682003
C           -0.04022106536990       -5.50617929469027       -0.23562199763882
C           -0.00874624092726       -4.71225751087896       -1.36540958996814
C            0.44536246036766       -3.41434548667934       -1.28373560454241
B            2.82786797135460       -1.53757801551535       -0.07042299110172
C            3.67313571577090       -2.86033020300194       -0.04893465939347
C            4.20070424782676       -3.31155760645544        1.14441439744535
C            4.90008754540402       -4.49906843038198        1.18139723645755
C            5.07172314837359       -5.23496780142403        0.02415902023045
C            4.54487927843415       -4.78083264216543       -1.17017114144639
C            3.84664242536646       -3.59267922760561       -1.20613892545250
H            4.58969631323351       -0.20453657359374       -0.29362257733333
H            3.22294284854303        1.84158618003866       -0.37582857569174
H            1.17486684049897        2.98030227712560       -0.35898175409190
H           -1.24850660992678        3.04197907815864       -0.17675254287470
H           -3.36593069098987        1.91578050587204        0.14342421698706
H           -4.66702764274846       -0.12061637871252        0.54010293561620
H           -3.51904056085171       -2.29242686727426        0.72365100156969
H           -1.11748864589379       -2.42922051444356        0.50557172115366
H            1.18396187311944       -3.30160608666738        1.99954518018582
H            0.36683263856200       -5.62242388358205        1.85698829564906
H           -0.39431925912290       -6.52206345077055       -0.30118051554301
H           -0.33672524119545       -5.10871862185975       -2.31243697131617
H            0.47976031069851       -2.78754223958366       -2.15774892639308
H            4.05020695982612       -2.73117348135475        2.03837199454046
H            5.30850147686643       -4.85480286159962        2.11323167728533
H            5.61500394369586       -6.16537193276949        0.05335891926175
H            4.67326679760602       -5.35749075974056       -2.07162099584009
H            3.41700230086204       -3.23267619057910       -2.12501468947024
