68
 energy: -11.555091301055 gnorm: 0.000304920951 xtb: 6.5.0 (97a52f5)
C            1.30756876082739       -0.30127979598487        0.16304483099624
N            2.76051169302856       -0.25982873272659       -0.00042835866735
C            3.59776721923526       -1.33617391949861       -0.00055262567304
C            3.17278420875158       -2.63739328275066        0.23572495933376
C            3.93032549591306       -3.79856083391046        0.18004800418084
C            3.40459384742906       -5.03449128688201        0.52842447833444
C            4.02301155231702       -6.27495900246463        0.43601952440690
N            3.45660879339935       -7.43251404952687        0.88180653911059
C            2.17620137602159       -7.54857708269171        1.57938876018776
C            4.24324750466705       -8.56823603510774        0.58242743115283
C            3.96716875416935       -9.92241337917387        0.86098237925352
F            2.84252110796154      -10.28189861882775        1.49637299339085
C            4.86369007704330      -10.88047491540403        0.46883422924755
F            4.59018164108051      -12.16481532576903        0.74269197169784
C            6.05605356267704      -10.51730924788268       -0.21192206827683
C            6.97602833974849      -11.50890805434554       -0.61823920409075
F            6.74925526300930      -12.80798979346807       -0.37299672338059
C            8.12448807633199      -11.15466724980175       -1.27837998674944
F            8.99264832132737      -12.10097789691333       -1.66281481653438
C            8.40119468721153       -9.80815616291705       -1.55645491738021
F            9.53134048540632       -9.48546902088631       -2.20152420081201
C            7.52923759012202       -8.82350031003184       -1.17259603101723
F            7.84012968969178       -7.54931540113004       -1.44439984901150
C            6.33001901184779       -9.15318424749392       -0.49240722650977
C            5.38864097543758       -8.18227671770840       -0.07798021261852
C            5.36269765034991       -6.65602413027183       -0.21633546420458
C            5.36474094231600       -6.26155431737897       -1.70622630488410
C            6.54772335427205       -6.04775832294854        0.55830837221783
C            5.02013115783202       -0.79501460741720       -0.22315046146838
C            5.91815365779634       -1.13397718284142        0.98265807160839
C            5.60238277211997       -1.30341464331504       -1.55616626881951
C            4.80130826278969        0.71989412168919       -0.30251005591692
C            3.45198174771003        0.96152002069542       -0.16871150311008
C            2.92576283831384        2.26923688388007       -0.19328279739696
F            1.61059383503633        2.48788790811513       -0.05036506494971
C            3.77794682450438        3.32823918410999       -0.35978026532538
F            3.26387540824517        4.56698827923866       -0.38356050016592
C            5.17469698748230        3.11480663892127       -0.50347482046253
C            6.05043850970681        4.20996031272983       -0.67220732399549
F            5.58896172024829        5.46905785016817       -0.70260548651722
C            7.39856347473770        3.99991917240074       -0.80887748461741
F            8.22455129004696        5.04416192085950       -0.96468593371714
C            7.92409937057356        2.69982075021141       -0.78546186150017
F            9.24606607630231        2.51910524649272       -0.91706784299705
C            7.09957872168725        1.61735656709813       -0.62517062620136
F            7.64247975808283        0.39290243885188       -0.61614254683493
C            5.70125655552765        1.79702651561388       -0.47707872987824
H            1.05990777311191       -0.50519384492941        1.20366272045118
H            0.88071909074147       -1.07068910070651       -0.47820956685947
H            0.87225811656890        0.65544882545503       -0.12012004963917
H            2.13685726697407       -2.75977353653963        0.49974449085917
H            4.95086708566578       -3.73908898709687       -0.14073084237127
H            2.39799088180939       -5.03105108110413        0.90870366906462
H            2.11868261920646       -6.81277772481476        2.37991407881518
H            2.07907798268923       -8.53860207252404        2.02136159836571
H            1.35905477511699       -7.39731199850989        0.87568010333934
H            4.52731348412993       -6.73169380880610       -2.22344038092476
H            6.28516783444781       -6.58121128802387       -2.19538383795113
H            5.27547080874137       -5.18469358869275       -1.83683955389782
H            6.50143864313045       -6.33533760295769        1.60944134457735
H            6.55209728710702       -4.96136759960217        0.50658450142749
H            7.49743766635635       -6.40002098886495        0.15434254492402
H            6.02903178442548       -2.20898931583667        1.11196393376205
H            5.48813187266736       -0.72938513552340        1.89983085281514
H            6.91450812031131       -0.70821873854180        0.86119200977418
H            5.75058966759371       -2.38087424105366       -1.55010284052631
H            6.56822015650295       -0.83999805490944       -1.75996906438816
H            4.93131813234472       -1.05972036000865       -2.38075069308233
