48
 energy: -8.061544972928 gnorm: 0.000953487824 xtb: 6.5.0 (97a52f5)
C            1.14679501232898        0.24480956534775       -0.09644568755433
N            2.58954330161689        0.16996129345000        0.15043750361377
C            3.39803473792533        1.26157464072320        0.16764478779790
C            3.01566622085985        2.59102525359583       -0.06828281033602
C            3.88748001981440        3.63865769163154        0.00094539550287
C            3.52084030552652        4.96805639917251       -0.24699218681631
C            4.34734711505815        6.06045032194690       -0.17134295654189
N            3.94278296213756        7.35316362842952       -0.42808080967429
C            2.58903430804848        7.73980893901039       -0.81693360120473
C            4.98833881842567        8.29477105775572       -0.23570456159832
C            5.00099551451803        9.67669363497826       -0.36720492962722
C            6.17213318055844       10.35760592535587       -0.11352562759763
C            7.31809999001614        9.67864317617649        0.26668027079150
C            7.31003513268621        8.30253304678076        0.40090045939095
C            6.14243918234140        7.61364503760581        0.14907029041269
C            5.83164878837990        6.11877767727191        0.22407526289614
C            6.04509860913545        5.61969567156499        1.66147331618400
C            6.70978689152263        5.35818564951456       -0.78117026496413
S            5.03090611122024        0.77120391894838        0.52697644278111
C            4.59779714993588       -0.92434789380946        0.60333849152584
C            5.40513239752062       -2.02296357345250        0.84628912281921
C            4.84354922025098       -3.27815897281535        0.85175488477025
C            3.48317152930153       -3.44389931272904        0.61450274204068
C            2.67450629048999       -2.35982625166972        0.37335254170131
C            3.23157010268930       -1.07857645044506        0.37025531840907
H            0.73375364237731        1.14638463294252        0.34975451857906
H            0.63679537265269       -0.60609865488949        0.34812598690247
H            0.95446121097837        0.25500942555308       -1.16732770168931
H            1.99215658516405        2.79122576234000       -0.32736131440108
H            4.90526827049983        3.41791020634993        0.25807027287750
H            2.49519346290418        5.14426351877472       -0.51457559682859
H            2.24862732725317        7.12224201684492       -1.64504529272081
H            2.56029928700063        8.77821326767334       -1.13597341961645
H            1.91234369218393        7.61393680797866        0.02554293512746
H            4.11083943162923       10.20395622086235       -0.65756903092444
H            6.19708078722687       11.43037925274718       -0.21213699379398
H            8.22450603736273       10.22771715425992        0.46077896248961
H            8.19593679007912        7.76917185366542        0.69664443716289
H            5.40457265000505        6.16717541659608        2.35143951067116
H            7.07796110521211        5.76747536184027        1.97243243643385
H            5.81664593415753        4.56120633258643        1.75998881104335
H            6.55028889007188        5.73986649409015       -1.78855885020361
H            6.48858675045861        4.29353572593056       -0.78750415155759
H            7.76492131766137        5.47784497162760       -0.53986717742476
H            6.45685960251321       -1.88086713265711        1.02436240042870
H            5.46191284234243       -4.14035931128016        1.03902209260478
H            3.05991091956573       -4.43475260110945        0.61851823647895
H            1.62590519838271       -2.49396679706769        0.17960553362977
