77
 energy: -15.323217712216 gnorm: 0.000757915573 xtb: 6.5.0 (97a52f5)
C            0.58577754004637        2.52450029720932       -0.40782553757524
N            0.24923907507447        1.10830553603521       -0.51297636028899
C            1.19283574152441        0.08170220475409       -0.56657409797115
C            2.55052157690060        0.28321470475648       -0.49870922992271
C            3.53849767727899       -0.69745588273039       -0.56902458646732
C            4.89356145760111       -0.39430646744084       -0.45029062026532
C            5.94061638479780       -1.28206516192085       -0.51921869150366
N            7.28215577176946       -0.92646171004441       -0.36930988309428
C            7.74895312105640        0.40871854420883        0.02870703375366
C            7.60581645646852        0.62976944725395        1.52676157887127
C            8.02392216020417        2.03020032991571        1.97224061682744
C            7.85002190161709        2.25433296765370        3.47412001133652
C            8.25084216773979        3.65487036391483        3.92449771697182
C            8.06961588843093        3.87064053157392        5.40833726702793
O            7.76745947258292        2.93550417036195        6.12117544478062
O            8.27294548781842        5.13983117650561        5.85983735729000
C            8.14601187589210       -2.04080216536372       -0.45210094315103
C            9.52889765446400       -2.12695918256518       -0.32932058606505
C           10.12829563270008       -3.36279925752164       -0.46133705265796
C            9.37142018606490       -4.49398092624671       -0.70822012304239
S           10.17348210519297       -6.10205959637572       -0.88150655866318
O            9.49822415553671       -6.96054312403225        0.13479152716459
O            9.89253352475328       -6.49570854219702       -2.29284251258673
O           11.61788026882471       -5.85862777249345       -0.59922478562192
C            7.99848360030092       -4.41690285104792       -0.82640125379526
C            7.38484518982896       -3.18708374054328       -0.69731346021245
C            5.90665817422726       -2.80047386861553       -0.75198068583604
C            5.33187586066862       -3.13896571290805       -2.13460144895869
C            5.15015340876467       -3.52289990974419        0.37253100175137
C            0.41265301341476       -1.23683615519449       -0.67483606870152
C            0.69181169902163       -2.15017983445399        0.52743825361403
C            0.69636143944044       -1.94663250999821       -2.00634360373917
C           -1.04388372468974       -0.77354323692504       -0.63979308424128
C           -2.21766421220368       -1.49923629011784       -0.67475050605175
C           -3.42113565001515       -0.82641591178564       -0.61586115527999
S           -4.95703064520440       -1.77469277147891       -0.65485444402791
O           -4.86788631781920       -2.56509875054668       -1.91693659663545
O           -4.90125754651309       -2.59954495269231        0.58725095112697
O           -6.05188191293555       -0.76144115976735       -0.65524245164002
C           -3.46002797093843        0.55309787732087       -0.52494110650385
C           -2.29515717498741        1.29189513832170       -0.48884520709310
C           -1.07747701613187        0.62117651575109       -0.54641225993732
H            1.05689211557145        2.72319796309655        0.55281791631382
H           -0.30497639968781        3.14172778216434       -0.49141545117137
H            1.27013852039834        2.80423577962901       -1.20636184747418
H            2.88555010700944        1.29757965529829       -0.37473191613588
H            3.24707775210635       -1.71576804337242       -0.72401758617577
H            5.13839867025509        0.63920997622754       -0.28484156328017
H            7.18904876089127        1.16091141864485       -0.53322937293226
H            8.79012771030923        0.52766686917769       -0.28194031790979
H            8.19271099123435       -0.12459899289490        2.06311347976946
H            6.56754794479744        0.44231103672441        1.82313734014128
H            7.44397051965706        2.77917390917371        1.42030202138618
H            9.06762750182573        2.21110481360257        1.68987739157584
H            8.43432649279550        1.51312374466072        4.03179724998213
H            6.80855388190359        2.06626597404689        3.76014378843193
H            7.66213720246928        4.39901336136271        3.37957940632175
H            9.29604055169582        3.84370954045609        3.66138971648237
H            8.51551782961422        5.74378176494541        5.13055435481210
H           10.11337159661042       -1.24604081916689       -0.13544892008222
H           11.19757634465241       -3.46015960619355       -0.37344445768524
H            7.41718906997901       -5.30250280223416       -1.01365603516330
H            5.89191535435520       -2.62498315991361       -2.91482351064008
H            4.28891332802504       -2.84245150056382       -2.21994585156884
H            5.39235431251952       -4.20923248822951       -2.32749510648803
H            5.57611300054459       -3.26749908067328        1.34203257208274
H            5.21751208251920       -4.60321711101980        0.25107041523980
H            4.09642214977803       -3.25614758756954        0.38892061846020
H            1.72925099276342       -2.47470149530521        0.55465961660329
H            0.06478289017576       -3.04005991797841        0.49128322911472
H            0.47950333249696       -1.62710724130600        1.45906105181094
H            1.73442874233790       -2.26165781011109       -2.08252386004751
H            0.48497941798366       -1.28291362180160       -2.84378455021107
H            0.07059615546714       -2.83167607220524       -2.11351493402578
H           -2.19646240576496       -2.57249243443808       -0.74471080791762
H           -4.41709306101377        1.04579461365652       -0.48111598156644
H           -2.32418095485982        2.36362922138620       -0.41352195705459
