51
 energy: -8.694715711328 gnorm: 0.000697123921 xtb: 6.5.0 (97a52f5)
C            1.18512050751127        2.63605033404282        0.16382808240629
N            0.82367784735538        1.22477135786164        0.06200763679066
C            1.72302128981921        0.18963586604863       -0.08226449332836
C            3.08235854610771        0.36022139273828       -0.18343741615043
C            4.03579815979525       -0.65504271860596       -0.31520830551867
C            5.37896280097526       -0.40883107753933       -0.41925183527301
C            6.33435218932732       -1.41578782868686       -0.54343597178412
N            7.61627605587261       -1.18387652159633       -0.59790771617915
C            8.55028065176118       -2.15026966231321       -0.77772585654454
S           10.16032940284114       -2.05293643855018       -0.10696533462370
C           10.60385217666587       -3.63025096809480       -0.71661606564514
C           11.79105157191060       -4.32816491246781       -0.56472103305229
C           11.91334043473182       -5.57217186914952       -1.13674090230015
C           10.85968059626193       -6.12510622053620       -1.85802681912215
C            9.68016861135296       -5.43963301358275       -2.01489287421039
C            9.54465977948890       -4.17297763826502       -1.44034271771875
N            8.42225050735995       -3.30456222692926       -1.47386476078907
C            7.28262909047872       -3.61876506532100       -2.33715951420004
C            0.91094311179294       -1.11525616487099       -0.11673210655698
C            1.24775397551294       -2.01382154972361        1.08304874750114
C            1.09357529265773       -1.85274561821192       -1.45244012816206
C           -0.53032078836528       -0.61942672261951        0.00180131533011
C           -1.72195995093788       -1.31296996682307        0.00664872600996
C           -2.90691178627630       -0.60755593283433        0.10795343337612
C           -2.90026444118217        0.77461186721204        0.20050150157651
C           -1.71360638954267        1.47537678520647        0.19724089548053
C           -0.52082977034602        0.77145544553607        0.10065884255816
H            2.00712521923788        2.76157786503782        0.86460411667720
H            0.34443259542164        3.22270433857639        0.52366928662343
H            1.48460596126682        3.01197287569640       -0.81178474059527
H            3.45268943172768        1.36885661599986       -0.16562883638063
H            3.71186690669622       -1.67821955567263       -0.33157586680748
H            5.72505923286471        0.60889961787642       -0.40202170961908
H            6.00536874303630       -2.43993325949819       -0.52704842487642
H           12.59710082395931       -3.89051861328237       -0.00191066290162
H           12.83124326607612       -6.12498441441938       -1.02404129504491
H           10.97073473970647       -7.10326975853882       -2.29596617822349
H            8.86143196353396       -5.87252195145039       -2.56072212722821
H            7.62759395256221       -4.09805204850364       -3.25018938508615
H            6.76010509577357       -2.70843012136363       -2.62055691230288
H            6.59621857870840       -4.28888379584088       -1.82471063619521
H            2.28009188007522       -2.35429718710804        1.05526542619059
H            0.60625926939765       -2.89353395644788        1.09854832804123
H            1.09796184170669       -1.47203744315069        2.01579511851756
H            2.11585727308402       -2.19752612461769       -1.58793514437003
H            0.84790558703154       -1.19516418995125       -2.28501382585805
H            0.43914826463604       -2.72131608236748       -1.50627031405568
H           -1.72080448630570       -2.38582975516283       -0.06992469751157
H           -3.84430938344336       -1.13856335577064        0.11174844946133
H           -3.83354036923330        1.30809011951929        0.27433097435990
H           -1.70754586045494        2.54823924851471        0.26035372731227
