47
 energy: -7.907031191234 gnorm: 0.000517769434 xtb: 6.5.0 (97a52f5)
C            1.16680503382788        2.64541487430818        0.13711818425367
N            0.79309162898002        1.23736020730681        0.03797704233135
C            1.68688627326196        0.19614698810798       -0.11884963649609
C            3.04477515584337        0.36066123943766       -0.22609596392568
C            3.99699350715655       -0.65189248734546       -0.36286430466086
N            5.27647732921944       -0.40988474532458       -0.38845405475136
C            6.22581088522691       -1.36270657936404       -0.55565589996239
S            7.81703538711389       -1.25419182851654        0.15820013107867
C            8.29434083168869       -2.82254787398121       -0.44981544130053
C            9.48274589055850       -3.51070194900687       -0.26913909861953
C            9.63271443981701       -4.74945464085045       -0.84667161428371
C            8.60538661088485       -5.30634516966965       -1.60138257099198
C            7.42431060582227       -4.63034647884627       -1.78642341097115
C            7.26159522241183       -3.36954588117834       -1.20723087257927
N            6.13223088855211       -2.51101543055922       -1.26724974431434
C            5.02605709752220       -2.82524999354227       -2.17131749175218
C            0.86774903770839       -1.10400203112728       -0.13554421816341
C            1.22470396111847       -2.00372745197122        1.05747017978100
C            1.02062103829377       -1.84267436695197       -1.47341339665942
C           -0.56833820422275       -0.60109645056031        0.01119782088894
C           -1.76192208623285       -1.29023443352110        0.04441429029625
C           -2.94182656206689       -0.58053183944500        0.17005307627881
C           -2.92831356709657        0.80182991205894        0.25733276613172
C           -1.73982903744541        1.49848045730715        0.22396749999815
C           -0.55179254162401        0.79033350095042        0.10340445973510
H            1.97694533619589        2.76650860011467        0.85237481217857
H            0.32589233424811        3.24358234901537        0.47667457530258
H            1.48852010754488        3.01154926477129       -0.83513974032412
H            3.42756621533964        1.36360793014186       -0.19676714907167
H            3.68310444997639       -1.67805759249807       -0.37391565381720
H           10.26885620044670       -3.07005459751133        0.31896820865245
H           10.55209785474651       -5.29489289486466       -0.71188117563663
H            8.73767775038346       -6.28017764428255       -2.04306832986139
H            6.62505878191233       -5.06647154280698       -2.35800908105919
H            5.40736361167228       -3.28298174006267       -3.08101395467284
H            4.50193227691446       -1.91609542200577       -2.45567584953965
H            4.33456264612210       -3.51480652088562       -1.69266156565236
H            2.25380116268924       -2.35156003379620        1.00795998144904
H            0.57796859668331       -2.87919399919660        1.08790600217543
H            1.09900072075696       -1.46025900739215        1.99279079562110
H            2.03995973261924       -2.18690202138351       -1.62746661250598
H            0.75848542670044       -1.18621182258027       -2.30188859856420
H            0.36560788656422       -2.71160466052561       -1.51260346144554
H           -1.76645137781938       -2.36340686655822       -0.02789388466054
H           -3.88067614986679       -1.10834249019556        0.19758635785279
H           -3.85791519195974        1.33866655146690        0.35116328339223
H           -1.72942719819511        2.57150661332828        0.28384330884449
