71
 energy: -14.414335093087 gnorm: 0.000761568086 xtb: 6.5.0 (97a52f5)
C           -0.16036261400939        1.88888034612429        0.19522977454673
N            0.02860188803472        0.47332652366313       -0.11621641405654
C            1.11490187584500       -0.10926936014146       -0.69839982673489
C            2.35600157500623        0.45094119073777       -0.98066443226511
C            2.83434330497398        1.65861398913472       -0.49243318982153
C            4.03389444676611        2.20945688538442       -0.88299483994098
C            4.59418941667324        3.40929098529481       -0.38658981372646
C            4.20180138113739        4.02484808039466        0.83696722371561
C            3.43635210639070        3.51180466821828        1.91509658835843
C            3.41898913295869        4.45090165046048        2.91507615096128
C            4.17343888115613        5.57556643885390        2.49962211168475
C            4.39659078049130        6.78580825258763        3.28295436570275
C            4.77638085747952        7.98186733828450        2.67580059099057
C            4.97765009630004        9.12524827015115        3.41293816638798
C            4.79885389262468        9.10370947649861        4.78162833176273
C            4.41832475198985        7.93230576773527        5.40625020195350
C            4.21678416562827        6.78748496250612        4.66856674815252
N            4.63876087366861        5.26474802733592        1.25539657392125
B            5.57656827533663        6.12149132355600        0.37746167863559
F            4.83016946508448        7.16137432073191       -0.16831838513258
F            6.62842028931277        6.57040134365448        1.16886173412802
N            6.16484019753866        5.29138697215686       -0.78367109462901
C            5.64033309442439        4.05687140974490       -1.09938832229807
C            6.35520748039145        3.61541385317849       -2.23977655817927
C            7.28372413078701        4.57453057273045       -2.55759260218832
C            7.16466769558981        5.64904484171514       -1.64038703729699
C            7.96558897248109        6.86849584682105       -1.65089921658231
C            7.52255714006878        8.03319245169460       -1.02587167192975
C            8.27580078680232        9.18367071665051       -1.04064291568172
C            9.49508550401930        9.20099971099070       -1.68726276713089
C            9.95341778554857        8.06196355685046       -2.31957996593863
C            9.19961936930927        6.91005743494546       -2.30483621671173
C            0.74330227545151       -1.55890529008054       -1.04495826813944
C            1.66863416621284       -2.54383362740492       -0.31613626080243
C            0.77899230623649       -1.78503207010268       -2.56302074063297
C           -0.68210738632444       -1.67725979904480       -0.52105231682732
C           -1.56007927386783       -2.74066023220268       -0.51828448829173
C           -2.81657948905311       -2.56849910348946        0.03548334231735
C           -3.18614663556957       -1.34840954300010        0.58075790130775
C           -2.31249960194465       -0.28127354549178        0.58000124915828
C           -1.05053182533410       -0.44571918942224        0.02107296035512
H            0.25367639616867        2.11673128826981        1.17540114481248
H           -1.21843250069994        2.14013512805003        0.20117434939612
H            0.31518589507941        2.50993574845699       -0.56121791198713
H            3.02223234449711       -0.12323413567750       -1.60057313763627
H            2.23262695758072        2.19957855000639        0.20878507966524
H            4.55845999735787        1.71524599319239       -1.68140411473199
H            3.01460417337296        2.52461476657812        1.99042711644213
H            2.91717946794927        4.34802792782908        3.86251858765889
H            4.91140252626052        7.99335075519561        1.61105682745135
H            5.27524814712985       10.03742438097553        2.92203737400000
H            4.95657954272079        9.99858543328507        5.36115182008873
H            4.28092416101179        7.91437234426005        6.47505074813858
H            3.93099014704844        5.87597558302697        5.16330728332609
H            6.20441648877342        2.68708530405409       -2.76393716817947
H            7.97046998542884        4.53192585428371       -3.38617735251179
H            6.57026799731165        8.01683631727879       -0.53113735091972
H            7.91424699972551       10.07073896418056       -0.54665959386257
H           10.08741386953456       10.10125839521961       -1.69871057314010
H           10.90534963521642        8.07462935285054       -2.82436737748391
H            9.56783823076107        6.02313197755216       -2.78973658106674
H            2.70053666622822       -2.42702176001584       -0.64427308497023
H            1.36731791890380       -3.57308265965309       -0.50604064861305
H            1.63481229325781       -2.37462488857337        0.75946535471868
H            1.78776007976632       -1.66306661583066       -2.95476778267038
H            0.13001449985535       -1.07271544014710       -3.07087652818940
H            0.43932662416477       -2.78916394494866       -2.81346161420206
H           -1.26351195466666       -3.68411929123305       -0.94177595969083
H           -3.51293655883165       -3.39075684320145        0.04402904891182
H           -4.16759111192139       -1.23262778384008        1.01059734617158
H           -2.59430045462955        0.66133385021119        1.01328634994453
