75
 energy: -15.197445338085 gnorm: 0.000523015561 xtb: 6.5.0 (97a52f5)
C           -0.11906989110846        1.98114144801031        0.05988730947991
N            0.05667116484795        0.54357490035483       -0.13739734088657
C            1.15761657092321       -0.09703821248641       -0.61330582803370
C            2.42337849213173        0.42632250105437       -0.87747946974622
C            2.90111779633802        1.65466353675969       -0.45487327579441
C            4.14262825550440        2.14782222317916       -0.80637477995123
C            4.63540730459243        3.36483757096208       -0.34669217823348
C            5.83365501554977        3.89832488684242       -0.75864165242560
C            6.40109603766507        5.11676161429703       -0.31143181476964
C            6.02728452645321        5.77311526440244        0.89570741644132
C            5.27090073736895        5.29713044373989        1.99720583938935
C            5.27528106912876        6.26368928312549        2.97032343990284
C            6.03305990975107        7.37016636680782        2.51246994229676
C            6.28242497448029        8.59778013528373        3.26130924555061
C            6.65115227731226        9.77718551865555        2.61629425963194
C            6.87506422078591       10.93693084795809        3.32087354978347
C            6.73203961754499       10.94833270501634        4.69394153195678
C            6.36366394703012        9.79353097568714        5.35565143577630
C            6.13892539208950        8.63247855562834        4.65063881315554
N            6.47789123484622        7.02186262706503        1.27175769316282
B            7.40572034792729        7.84773572153017        0.35391502353796
F            6.65303501239358        8.87510362035360       -0.20807438509908
F            8.47313488546006        8.31501583887349        1.11295563871631
N            7.96995153244182        6.98106021935605       -0.79262917191599
C            7.43724136302571        5.73816371415538       -1.05972321863388
C            8.12756379565031        5.26006393832855       -2.20075932320119
C            9.04951176479289        6.20731798918054       -2.56721642754233
C            8.95039133974944        7.31036168176911       -1.68132874363701
C            9.74828359678297        8.53024931957486       -1.75327774873220
C            9.32043982198252        9.71426745904419       -1.15496803396039
C           10.06733416498308       10.86635601087955       -1.23508456910959
C           11.26512088993181       10.86545772661638       -1.92144820986248
C           11.70901061661102        9.70602774737095       -2.52622245790718
C           10.96146074585956        8.55260700925717       -2.44602735175128
C            0.77869143181171       -1.56391777950171       -0.86791925071067
C            1.65053028548198       -2.50378588126124       -0.02269447538701
C            0.88280935826052       -1.90528265215345       -2.36128264426927
C           -0.67207690494823       -1.62201682864506       -0.40776627198326
C           -1.56633920372793       -2.67094491475643       -0.36264915452782
C           -2.84479483071849       -2.43914553058843        0.11328798855565
C           -3.22007048798578       -1.17484433865342        0.54110691599496
C           -2.32936835919918       -0.12247360419373        0.49958437678679
C           -1.04573419270307       -0.34722458347307        0.01713361577329
H            0.41159038424425        2.53584228433460       -0.71120659502541
H            0.24583170588735        2.27430108409910        1.04220903150234
H           -1.17043786686213        2.24939975147108       -0.01195211968919
H            3.10484024763000       -0.19978409154615       -1.42692077683861
H            2.30151257014732        2.24556029851927        0.21125048987447
H            4.75538702590456        1.56693185480631       -1.47348276830952
H            4.01090116484653        3.93890657849608        0.31240043899619
H            6.35662968910087        3.37123462294334       -1.53706824486475
H            4.84042903124569        4.31629685573295        2.10102532416902
H            4.78803446744554        6.19119670783405        3.92816248978443
H            6.76057626101482        9.76211033257236        1.54845940571444
H            7.16250417694206       11.83630381432410        2.80112682889011
H            6.90815324068785       11.85598605623985        5.24775172100801
H            6.25345901344996        9.80106163146615        6.42779510320233
H            5.86331364157003        7.73352063412456        5.17344540465350
H            7.96644525515799        4.31514855723508       -2.69103457561046
H            9.72068410798677        6.13592681128079       -3.40654802247381
H            8.38410438637516        9.71286221293045       -0.63040551280365
H            9.71693099482558       11.76988242814024       -0.76340347105682
H           11.85169635244767       11.76732302696822       -1.98554723422874
H           12.64426136534655        9.70410435683608       -3.06189347659304
H           11.31845576685731        7.65018343247019       -2.91037896865869
H            2.69850434889703       -2.42895176630368       -0.30948589686750
H            1.33866264683946       -3.53986991694645       -0.14738369619032
H            1.57054097962886       -2.25170235217959        1.03399255147687
H            1.91141869177914       -1.82982686948878       -2.71077836330914
H            0.27328896133334       -1.22334241943263       -2.95277970046657
H            0.53573378282843       -2.91994637929838       -2.55199130256692
H           -1.26514717599248       -3.64905823806262       -0.69435502607396
H           -3.55421035623988       -3.24926489150504        0.15253615190578
H           -4.21892041515491       -1.01276172167156        0.91184341661317
H           -2.61544007323395        0.85520023812076        0.84319113600743
