49
 energy: -10.102895429243 gnorm: 0.000597557565 xtb: 6.5.0 (97a52f5)
C            0.72234771874748        2.81629399273081       -0.21104626683034
N            0.60099060422999        1.37947296343628        0.01390282285016
C            1.62800691343277        0.43942334855583       -0.13287488151384
C            2.96983351186829        0.66808000096432       -0.22950457319840
C            3.63832633396952        1.90253414818750        0.11368219856026
C            4.67002710764521        2.63279599820045       -0.52982348138311
O            5.43335096745297        2.50743069287480       -1.62357362927914
C            4.57820414877656        3.67894168545980        0.50293747070403
O            5.17594316413268        4.72126120824085        0.67425958595193
C            3.52575244952067        2.88175655123254        1.16064912623429
C            2.83627383814860        2.97321711582385        2.36727159472418
C            2.70793439708916        4.16330294592166        3.19700689280785
O            3.14962768289963        5.27747686664695        2.98131628115810
C            1.89995599352858        3.78831725711409        4.36444792977469
C            1.47506367336631        4.54917642272266        5.43819656028060
C            0.70900943566395        3.94498229666953        6.41478956030274
C            0.37073031625859        2.60177768208147        6.32179135303959
C            0.79220256718723        1.84030852381406        5.25026488494300
C            1.55793376403331        2.44369994749044        4.26956365654072
C            2.14958883106332        1.88328093751725        3.04925585100398
O            2.09489952155455        0.71178738850066        2.72107310429090
C            0.96820802145736       -0.94493391461960       -0.16202928371424
C            1.50735729058533       -1.81126136444193        0.98495105148146
C            1.17619527645651       -1.62472885113567       -1.52210055411777
C           -0.50878959195668       -0.62700083042562        0.05896291541500
C           -1.60394040075498       -1.45839536152889        0.15853704030030
C           -2.85406715533305       -0.89890505904657        0.35540162087429
C           -3.00734985353579        0.47548330004670        0.45167475886931
C           -1.91821174626784        1.31412224647455        0.35280985753065
C           -0.66191767216457        0.75714416287677        0.15435480567803
H            1.63054152024982        3.03962719974106       -0.76505307765193
H            0.74431418585744        3.34100845431361        0.74119370965216
H           -0.12339354096316        3.17621845915451       -0.79271384702789
H            3.59301382033565       -0.15157633278968       -0.54639559174001
H            5.21003578758535        1.68092781812256       -2.09265582424990
H            1.74589553371276        5.58898671427034        5.49538551579498
H            0.37129153571801        4.52269790103269        7.25934931424781
H           -0.22601015035568        2.14769759596005        7.09562037771865
H            0.54134759456875        0.79745691698651        5.16503304253279
H            2.56737528185459       -2.02099588868627        0.85133706235757
H            0.97647632090080       -2.76015175943588        1.04287232238831
H            1.38710540074901       -1.29110310511971        1.93497705441990
H            2.23207350190938       -1.81346438328804       -1.70925890078593
H            0.79697267475746       -0.99529722144752       -2.32590619189235
H            0.65087549183908       -2.57773189402883       -1.56339168221924
H           -1.47935196546208       -2.52408901292696        0.08225281621073
H           -3.71724862578222       -1.53895600972043        0.43441119174940
H           -3.98879817676588        0.89280365765351        0.60622401307673
H           -2.02786330002062        2.38047858824387        0.43566044120466
