60
 energy: -11.556787659079 gnorm: 0.000388227942 xtb: 6.5.0 (97a52f5)
C            2.70565934136452        0.37202682042215        1.74335333180954
N            3.62037172337239        0.46282984745424        0.60886486826753
C            4.56775459026086       -0.48320390425693        0.27952680981487
C            4.84304727036930       -1.58665556941407        1.06566564524476
C            5.76232832621032       -2.61610505960051        0.84711325271349
C            6.17562929882285       -3.67284166854974        1.75170504089736
O            5.84863640412657       -3.95053216231088        2.90180104213897
C            7.08730438876705       -4.20073654631521        0.74561582468647
C            8.02005557118179       -5.22039569574232        0.53792579962779
C            8.54530571148080       -6.11797268946925        1.44909922787020
N            9.45973051590882       -7.09288209033765        1.11077629503625
C            9.90418890349251       -7.38570148773105       -0.24881811957087
C            9.98768474125368       -7.76034067131847        2.24633244811469
C           10.96634082558312       -8.74372775230023        2.35019990603666
C           11.32254769209075       -9.19616363991097        3.60110074411671
C           10.71783696448045       -8.67933077689353        4.74285930814144
Cl          11.19287281522864       -9.25716362415219        6.30090642166444
C            9.74080300978359       -7.69769359986181        4.64221369619111
C            9.38190647288360       -7.24177065414740        3.39322040999829
C            8.36408734428177       -6.18347049782483        2.97259841773735
C            8.70550716905358       -4.84053886089245        3.63187096932767
C            6.95319378741414       -6.66300775517545        3.33652136918175
C            6.66670674403883       -3.14964434527069       -0.16270461815952
O            6.99023401198188       -2.87164405938859       -1.31370735104184
C            5.27040632293646        0.01074870338199       -0.99349196187986
C            4.94817289298263       -0.89958359058890       -2.18520493015435
C            6.78176169153122        0.15872235554333       -0.77322565106511
C            4.64146116974158        1.38423239012873       -1.22042430698209
C            4.90377929255401        2.34844874005545       -2.16818597366535
C            4.17731851585224        3.53169202422928       -2.14055657091967
Cl           4.49848765631789        4.76054734522177       -3.31267461680323
C            3.19898534791509        3.73973756488834       -1.17307198878687
C            2.93251707367317        2.77809370501146       -0.22414904404332
C            3.65801154055867        1.59132213126211       -0.25028908998417
H            2.31261974759254       -0.63881257497253        1.82834844827161
H            1.86446147234811        1.04780996843588        1.61122140443523
H            3.22585032311972        0.63243699410000        2.66265520088966
H            4.31286401315005       -1.64975986616726        1.99917950211239
H            8.40683314159769       -5.27792397521065       -0.46386947077381
H            9.05249418087679       -7.40273730276387       -0.92549016080867
H           10.38688515417205       -8.35865872771340       -0.29306829261635
H           10.61008962400243       -6.62745896765927       -0.58088328700854
H           11.43979853700092       -9.13365851396130        1.46754411431125
H           12.07856403274774       -9.95437050278046        3.71432242521669
H            9.27949358732945       -7.30198230438572        5.52874045249738
H            9.70928562927120       -4.52266968542775        3.35334343840195
H            8.66395604015130       -4.91891674441272        4.71704474859743
H            8.00783188103689       -4.06435088698390        3.32687380342964
H            6.75659873320780       -7.63965373388960        2.89661849044426
H            6.19763366014563       -5.97212798429861        2.97123668247527
H            6.83947244283027       -6.74868183208737        4.41608116468922
H            5.31150233636496       -1.91011831726386       -2.01615615823747
H            5.40933981581461       -0.52248798496838       -3.09672192317337
H            3.87229506078938       -0.95119359413750       -2.34601683993831
H            7.24776673814107       -0.80575793363975       -0.58634932339848
H            6.98204060911248        0.80340115241764        0.08145018441797
H            7.26052570617678        0.59685526342723       -1.64747354362252
H            5.65950975375502        2.19622068840705       -2.91719104600861
H            2.65639890352442        4.66970274270335       -1.17758542399738
H            2.18518373886776        2.94061966328985        0.53111880594459
