64
 energy: -13.023497408389 gnorm: 0.000713400476 xtb: 6.5.0 (97a52f5)
C            0.12020084523680        2.56158185566393       -0.54468401238291
N            0.34875876399849        1.19824274457211       -0.07142939355120
C            1.53966244227816        0.49907708840301       -0.13898307065460
C            2.80015491368808        1.00065103116083       -0.43683469350940
C            3.23795591437819        2.32461857390145       -0.23459619511661
C            4.17816904839982        3.15142717783776       -0.98744404040676
O            4.91627495790554        2.97041344892829       -1.94592102782247
C            3.86384111516633        4.28500550277783       -0.12263797911714
C            4.35518629250069        5.60422430221657       -0.11103618025033
C            4.44221828393405        6.43816661170413        0.99706294900724
N            4.59871539028317        6.06771969489450        2.31938414003793
C            4.92930888200296        4.73108351835270        2.80754911187075
C            4.69661011785598        7.19670213058791        3.17199800450899
C            4.82672821716416        7.26762722150910        4.55268591107331
C            4.90110818543425        8.50824120265255        5.14926588175438
C            4.84958142377011        9.66528901192205        4.38666581739449
C            4.72175524705853        9.59917024737263        3.01008628983524
C            4.64579522105982        8.36198875234640        2.40615789877305
C            4.50939807632617        7.97025549968022        0.93814817235074
C            5.73354433712805        8.43860809051658        0.13990225268296
C            3.20976875623479        8.53244661725303        0.34756470714955
C            2.93645325129858        3.45518182502994        0.62011620802468
C            2.08456079056888        3.65774845729276        1.71525702401776
C            1.55581871154164        2.59916547814524        2.43189438373694
N            1.13313391564172        1.72795865447367        3.08194270794062
C            1.71905242797537        4.92407005054010        2.13515910531594
N            1.35605658937258        5.97614509902054        2.48401695990581
C            1.20831176267762       -0.98932483117173        0.03770647176738
C            1.95861978885332       -1.56101155263809        1.24746259616863
C            1.52670740651256       -1.77856387291147       -1.23953864654801
C           -0.29532615531923       -0.97576300579216        0.29564175789894
C           -1.17918567545809       -2.00099205299807        0.55807184630263
C           -2.51749076596677       -1.70001982563151        0.74298843353404
C           -2.96575356345925       -0.38991744450813        0.66633281911340
C           -2.08842085172154        0.64028114307393        0.40292033480412
C           -0.74487180011057        0.34267485764699        0.21730191083365
H            0.99419760573373        2.93828168449303       -1.06983824984239
H           -0.10086444145547        3.21556855178369        0.29575184826317
H           -0.72137890093918        2.57994608143113       -1.23397521978306
H            3.51078010936719        0.32322104498029       -0.88215649613621
H            4.69595182327942        5.99565777324700       -1.05603163928482
H            5.15039424665060        4.06246617452306        1.97945942755781
H            4.09709624140181        4.32715516772350        3.37960837746476
H            5.80688421224818        4.77694981933236        3.44902338734864
H            4.85660163744832        6.36529199729980        5.13680219363387
H            4.99907052810749        8.57937576041659        6.22007274195479
H            4.90894752943584       10.62638119695174        4.87021145709900
H            4.68139981653396       10.49275719735782        2.41250461050297
H            6.64556925526914        8.00858053641135        0.55167049456433
H            5.82650002030879        9.52315904761558        0.17376333941938
H            5.65984873841407        8.14057127079865       -0.90473669774720
H            2.35341939161168        8.18632891078411        0.92478074291218
H            3.07649882961423        8.20570519673904       -0.68273214925403
H            3.21251937443266        9.62131067832452        0.36232801613510
H            3.03601090057242       -1.51469583711646        1.09557848999027
H            1.68363463861416       -2.60018321332580        1.42195641389690
H            1.71893932142815       -0.99086947185794        2.14384767429029
H            2.59496564247638       -1.77221204412974       -1.45003995806626
H            1.00998424881794       -1.34567097224304       -2.09509336454491
H            1.20934735814566       -2.81589336191696       -1.14313590647580
H           -0.82516531965264       -3.01527682401137        0.61410774045940
H           -3.21811068473389       -2.49262495842083        0.94774995921643
H           -4.01110192014950       -0.17426627253269        0.81471251416842
H           -2.42542246805868        1.66006156021172        0.34995178251895
