70
 energy: -14.034560875470 gnorm: 0.000947772664 xtb: 6.5.0 (97a52f5)
C            0.08304654472156        2.57511365976161       -0.57991775974417
N            0.32136662162833        1.21749613834639       -0.09592567746026
C            1.46877046764438        0.47624492328046       -0.28025728958732
C            2.72518220589578        0.93915622756477       -0.65973511710161
C            3.23321374956823        2.22125756643294       -0.39274616010224
C            4.26279900175472        3.03243311722394       -1.04699081220210
O            5.03336940624631        2.87039800331364       -1.97759794796121
C            3.96660716601550        4.12212939650824       -0.11439589622103
C            4.51143429738102        5.40754995102331        0.03457184552253
C            4.42958284214002        6.19495960804403        1.17974919248113
N            4.35215744579435        5.77187060548250        2.48893611035736
C            4.65739648618387        4.43164792832224        2.98382771905932
C            4.23467433018957        6.86394123494851        3.38690672791004
C            4.10316647955732        6.87552225161342        4.76863581200031
C            4.00104921228901        8.08893175183617        5.41481066730367
C            4.03145670733819        9.27679424373013        4.70051768110251
C            4.16657245595355        9.26976964068531        3.32332233384500
C            4.26745693924344        8.05993311880169        2.66984876520920
C            4.43155833512859        7.73032756006413        1.18968026086706
C            5.75982253308238        8.28314316372624        0.65674439123935
C            3.23965029015769        8.26109831951547        0.38163985811810
C            2.95998803499376        3.30528347272460        0.51519303617518
C            2.05751843878016        3.48678648845781        1.60946525800900
C            1.36987753811136        4.74931356999346        1.80156700999214
O            1.48558465351610        5.67171361272425        1.00390393261881
N            0.53177485171723        4.87072205770824        2.90172930397470
C            0.27424846706729        3.85433619932446        3.80311938707263
O           -0.48220118307828        4.01383207891088        4.74425741685099
N            0.91441047339139        2.64824291260899        3.58490034940932
C            1.80738428427177        2.41017930696175        2.54860370850415
O            2.38847923622589        1.33502620987920        2.46482788853352
C            1.11451011224098       -0.99543250768399       -0.02457871101833
C            1.98812664759649       -1.55782811811239        1.10467036394004
C            1.25479896278356       -1.82528148655901       -1.30748965525270
C           -0.34634115641774       -0.92147197005205        0.40875945444583
C           -1.22525264006357       -1.90599667197669        0.80765557970289
C           -2.52139378943663       -1.55169051020895        1.13858521187252
C           -2.93355247061388       -0.22973262427784        1.07032351522450
C           -2.06140281725861        0.75982508151812        0.67045654023380
C           -0.76016261909613        0.40868931093180        0.33900823504910
H            0.95809233530943        2.95875619332726       -1.09799434534461
H           -0.15247051717303        3.23203817454525        0.25394161003161
H           -0.75305529344562        2.57859582471687       -1.27593397300346
H            3.38497748381166        0.25275745445816       -1.16446925463246
H            4.98278676688495        5.83303266849267       -0.83614693485081
H            4.92322274250504        3.76903012083280        2.16433221400680
H            3.79541537473140        4.02263017600086        3.50567003274488
H            5.49774544998284        4.47464769493885        3.67349778900678
H            4.07403429591955        5.94918387839477        5.31375980964188
H            3.89499678223127        8.11429926183611        6.48687984278965
H            3.94957915072626       10.21577518192584        5.22263875427046
H            4.19338793924544       10.18767660669749        2.76319456908745
H            6.59645552130183        7.88354039098253        1.22821695123889
H            5.78640472079092        9.36912264103820        0.73364642980734
H            5.90486223463705        8.01617895910128       -0.38887388300437
H            2.31152736888567        7.82792302028371        0.75341594580673
H            3.33357260785984        7.99553861184640       -0.67020942360431
H            3.16686270847511        9.34500922481655        0.45546414723457
H            0.05703955872010        5.74481295484842        3.02918984999513
H            0.75071702184800        1.90344049265291        4.23612811497096
H            3.03611737106004       -1.58263492123102        0.81009341525230
H            1.68387403377245       -2.56918423087589        1.36974271137865
H            1.90611306111911       -0.93030698555337        1.99162248800227
H            2.28844904161710       -1.84921563925600       -1.64880762395385
H            0.64460807751952       -1.40245652228186       -2.10440873400683
H            0.93047395113222       -2.85173121365534       -1.14285048658806
H           -0.89994353593867       -2.93011610229075        0.85624742773465
H           -3.21748190446877       -2.31200115080944        1.45210906966989
H           -3.94646488258574        0.02744626474640        1.33317253377461
H           -2.36985800763460        1.78864608398293        0.62061842937049
