60
 energy: -11.629841575405 gnorm: 0.000703759475 xtb: 6.5.0 (97a52f5)
C            2.87369837828325        0.64024050549006        1.85912169780479
N            3.63956467859426        0.65432041166824        0.61543262343885
C            4.59054140594814       -0.27639335240134        0.27067888141139
C            4.96190720956009       -1.32336748788388        1.09766979524071
C            5.89336808105333       -2.33613328174335        0.87530360550178
C            6.30237008967021       -3.40138048344579        1.77394997560272
O            5.95937480801558       -3.69028832773392        2.91675239880104
C            7.21921764214854       -3.92091190496744        0.76906033105319
C            8.14988876143561       -4.94160638811508        0.55057692619110
C            8.58630898783198       -5.92490942151030        1.41569282754731
N            9.50977719463718       -6.88957687734641        1.06390240995555
C           10.10151718211209       -7.02556274562086       -0.26438143669993
C            9.84779607999786       -7.73901061060223        2.14790240197920
C           10.74025245011269       -8.80102723261678        2.22923580452431
C           10.88467977294687       -9.45799151822108        3.43275335730889
C           10.15448700843465       -9.06897639333744        4.54525148656803
C            9.26532084685601       -8.01148089952513        4.47009170476055
C            9.11587461079438       -7.34931221314149        3.26995775035679
C            8.22716822865719       -6.16636172725903        2.88841290502759
C            8.58607578856611       -4.94947166450671        3.75129590451526
C            6.75319693650542       -6.56545782173474        3.03555377797859
C            6.80839743759733       -2.86066673691972       -0.13196306915108
O            7.14126316721602       -2.57689728315048       -1.27902225681038
C            5.12558921666502        0.11600099709686       -1.11352165863019
C            4.78375080648414       -0.95383888572425       -2.15827511075369
C            6.63000826902075        0.41175093316103       -1.06085988534441
C            4.35754890941554        1.39850548387206       -1.42670032301928
C            4.41308893558173        2.23562410317256       -2.51884473431607
C            3.58906869279227        3.35329230017274       -2.55053287770050
Cl           3.64392543075317        4.41981833920438       -3.90976617775217
C            2.72109339071311        3.62227940018189       -1.49635775237788
C            2.66208647674516        2.78758530939466       -0.40271504189034
C            3.48576811391620        1.66651892297265       -0.36854690489140
H            2.40749444928864       -0.33292098579107        1.99868885035095
H            2.08856697956410        1.39139318589675        1.83995847012817
H            3.53019486264249        0.84538038616879        2.70215983070802
H            4.47713640031178       -1.36410457215894        2.05658696743533
H            8.59040017116931       -4.94253486461832       -0.43028112241196
H            9.31943436815467       -7.05045681546677       -1.02038932611018
H           10.67450516878189       -7.94587036181570       -0.34086903846168
H           10.76385708772081       -6.18576254092378       -0.46380512963486
H           11.30970489655492       -9.09908300376856        1.36772458495008
H           11.57413819033371      -10.28263192272732        3.51006762277968
H           10.28113364540087       -9.59350100730818        5.47790690575788
H            8.69565005259845       -7.70307965681351        5.32900593206877
H            9.64003865044904       -4.69902571804185        3.63887013703144
H            8.39613619189325       -5.15062508074686        4.80442040584825
H            8.00034770984290       -4.07920117026622        3.46565981323579
H            6.53660346415607       -7.45235272884664        2.44169428889248
H            6.09546986225602       -5.76754356511172        2.70019174916916
H            6.51287199949616       -6.78625332845971        4.07439630637612
H            5.26374946605578       -1.90021889021128       -1.92212128671655
H            5.11321629785460       -0.64693749925107       -3.14974002355769
H            3.70828637896858       -1.12149525981709       -2.19536963894781
H            7.19561044772942       -0.47796565215613       -0.79489652720841
H            6.84237792458703        1.18129858852597       -0.31999611279450
H            6.99067735137509        0.76254113598943       -2.02653684682431
H            5.08121240505594        2.03374965534198       -3.33626526445684
H            2.09645344529495        4.49753860632428       -1.55132445994744
H            1.99512715273706        2.99737962178700        0.41353356673817
