70
 energy: -14.810798216342 gnorm: 0.000803649921 xtb: 6.5.0 (97a52f5)
C            0.09965262965197        2.66555852867703       -0.21310135153226
N            0.50392800122911        1.34547821027229        0.26429436154218
C            1.74305064599690        0.73541931093472       -0.00091228243563
C            2.89819326778216        1.33273268536637       -0.42881540600807
C            3.20943898242212        2.72690829556695       -0.32544077737177
C            3.87741390633735        3.63431436415831       -1.23468011466058
O            4.42016591095505        3.52892140525597       -2.32704834005771
C            3.63881885856753        4.74369976717369       -0.29840678795124
C            4.14888256714205        6.01581913020464       -0.29906031488205
C            4.31876748605374        6.81629109058758        0.86990544807171
O            4.27928886858278        6.36678752338651        2.15198409161034
C            4.53384299085503        7.45242137836419        2.96216990259129
C            4.57045577227315        7.38680224941111        4.42140304155870
C            4.95044071903475        8.47247271332051        5.20813699098942
C            4.97928596095774        8.36795278556077        6.57779481085842
C            4.63143848583176        7.17565800565038        7.21700116972093
C            4.66770794157587        7.06470168978629        8.69020531589463
C            4.28276919949321        8.13404612758783        9.50038067766468
C            4.31739169136322        8.02911143817746       10.87297584206760
C            4.73801452025224        6.85666344190607       11.46776434517128
C            5.12360770538840        5.78739875013686       10.68456645404889
C            5.08887603028320        5.88808253046084        9.31163984837068
C            4.24988249602995        6.09202920874147        6.42297406925970
C            4.22084039899196        6.19813272166158        5.05391911588828
C            4.73970968081695        8.56468548650169        2.16972497030337
N            4.60656856170092        8.16461975721151        0.86735862494253
C            4.74508544383299        9.02378295698786       -0.30654637622852
C            2.96003289325272        3.80343594012933        0.59722457929378
C            2.29583630318044        3.87376028415903        1.83182113394191
C            2.05725241168922        2.73528571718523        2.58292014027741
N            1.87907852881589        1.79600635756454        3.25035665921590
C            1.75214137387890        5.04872730407770        2.32578465533363
N            1.21287840043666        5.99681088684371        2.73781056925201
C            1.55176974578868       -0.77306378428091        0.19785578661481
C            2.51707716781831       -1.29407726367572        1.27073451829654
C            1.73009373430514       -1.52648505747191       -1.12721269471812
C            0.10737305492766       -0.87698250511578        0.68234182774047
C           -0.64123099993395       -1.97275335571125        1.05586882151822
C           -1.95637057238622       -1.78529801580896        1.44523762258904
C           -2.51666321483974       -0.51670056179384        1.46009520124657
C           -1.77632621829834        0.58439987296901        1.08727921467545
C           -0.45571604326898        0.40123377354730        0.69669016841730
H            0.83671109434368        3.06609846529831       -0.90453936956337
H           -0.01101007401811        3.34733120755205        0.62688060910896
H           -0.85165540295113        2.59672944566037       -0.73641132060233
H            3.64945829035112        0.70287721825330       -0.87660415987900
H            4.57181119571396        6.38367356027811       -1.21663285341375
H            5.23017667374042        9.39672165116331        4.73433647103514
H            5.29189019892705        9.20811166385661        7.17290500582300
H            3.93791852741380        9.04396560090539        9.04102520864428
H            4.01357787256027        8.86336163312457       11.48380108684305
H            4.76586607341978        6.77630944541939       12.54203075189843
H            5.45500344868167        4.87288842824401       11.14849373691220
H            5.40647338877598        5.05834511414770        8.70455594264282
H            3.95766502211187        5.17081070577055        6.89586952746938
H            3.91510886907780        5.36493253336764        4.44456944748712
H            4.95894988055296        9.56599383795702        2.49380648437247
H            4.78328487605525       10.06837706165136       -0.00495787524093
H            3.89597470731453        8.88445828691619       -0.97240936093095
H            5.66091428323657        8.77910125113926       -0.84043288464818
H            3.55277658093731       -1.17072367499438        0.95783447719052
H            2.34544694950121       -2.35066210304989        1.47070147207451
H            2.37776191939819       -0.74473412637239        2.20077475556039
H            2.74825242283373       -1.42921561109030       -1.50061514249135
H            1.05281118923417       -1.13305074483096       -1.88401299295022
H            1.51702604962222       -2.58710234042918       -1.00208700659676
H           -0.20249495049095       -2.95481492573447        1.03974712621594
H           -2.55053887575458       -2.63476249558052        1.73901789122001
H           -3.54177029832546       -0.39047078008314        1.76747145976152
H           -2.19896523667142        1.57302878811084        1.10481611432084
