56
 energy: -11.837436797526 gnorm: 0.000763896190 xtb: 6.5.0 (97a52f5)
C            0.36323658803049        2.71359558388576       -0.56499103327263
N            0.47030904330508        1.33479362379375       -0.09539361313459
C            1.63061789356406        0.54553085827026       -0.15759141668690
C            2.92127757025350        0.96166073212476       -0.35876021379889
C            3.41534080767461        2.28823145353106       -0.15287591928904
C            4.35881202978968        3.09219995016771       -0.90305656855555
O            5.06210897662205        2.91532707582016       -1.88917393386861
C            4.11832382584859        4.21965290220679        0.00600240936735
C            4.70085763251284        5.46622643985933        0.03083678758836
C            4.70637180998556        6.38639519246449        1.12793420811105
O            4.67665261459165        7.74686197274183        0.97520979283409
C            4.73398223591841        8.29435615674246        2.24022985100155
C            4.71970971202431        9.62092261210116        2.68012445127275
C            4.80559834519149        9.87790613047884        4.02488944145920
C            4.90860041161694        8.83947902405750        4.95450878471312
C            4.92511433746190        7.52879032895887        4.54853521008267
C            4.83226853521313        7.25217231790536        3.18466250461638
N            4.82349018802010        6.05922624525394        2.46722271336795
C            5.12711560236307        4.75890787614698        3.05966209246459
C            3.16919703616921        3.38691426516712        0.74487971674946
C            2.34004948182340        3.53625708578993        1.86349949366590
C            1.78797372525082        2.43577593234770        2.49553046443486
N            1.34594302039997        1.51961598111455        3.06538232196528
C            2.00227397031719        4.77273531637944        2.38331558046176
N            1.66117924677417        5.79660850266986        2.82442653605153
C            1.18420115772898       -0.91664776197638       -0.03766711148368
C            1.84422989498097       -1.57264525922521        1.18271876224247
C            1.49283036268117       -1.69231513609094       -1.32582459702313
C           -0.32435730997980       -0.80159534367034        0.16931965739632
C           -1.28447820041006       -1.77223092778260        0.36035920048916
C           -2.60619041197593       -1.38818784179859        0.50693844351564
C           -2.96391518656189       -0.04918456676328        0.46161692160859
C           -2.01131824875699        0.92789770920549        0.26913101677547
C           -0.68322334993266        0.54724155970693        0.12373835646696
H            1.26030895558400        3.00578217105072       -1.10473166509537
H            0.21761462389920        3.38336817722351        0.27919796930807
H           -0.48307444826556        2.81109292972329       -1.24133444758669
H            3.63520215762629        0.22873186636523       -0.69788839013087
H            5.22184067894007        5.77711744572416       -0.85922607586724
H            4.64292978645975       10.41425157798745        1.95869056447237
H            4.79485922286101       10.89814608998325        4.37181998254054
H            4.97468284380698        9.07267358338232        6.00440641197842
H            4.99853587325626        6.72278920093217        5.25643600802267
H            4.32748619955433        4.46445248601341        3.73497985729708
H            6.05784202522787        4.81727965919464        3.61931457818618
H            5.23590744010332        4.00088127707278        2.28841877876696
H            2.92640969478072       -1.61184585426682        1.06793299763733
H            1.47981137238840       -2.58885395243445        1.32508994363715
H            1.62085184424993       -1.00130953940486        2.08283586395044
H            2.56574703128529       -1.75272143104831       -1.50114628636740
H            1.03630976747141       -1.20246583743799       -2.18490797088551
H            1.10332946819009       -2.70775355034739       -1.26983793813498
H           -1.00209532860132       -2.80970545308411        0.39207623632357
H           -3.36478409149935       -2.13850250516492        0.65714565684450
H           -3.99801331692429        0.23060289062583        0.57836235786969
H           -2.27842514988790        1.96909276276210        0.24109524866566
