48
 energy: -10.551441014348 gnorm: 0.000960373489 xtb: 6.5.0 (97a52f5)
C            0.74030537661382       -0.31156779499413       -0.50347963965434
N            2.19061411896346       -0.19106842395597       -0.33926142586402
C            2.89042582964003        0.98984945471009       -0.54215373382067
C            2.41116744028178        2.28063195695457       -0.66547897300294
C            1.15924015001185        2.77613520963477       -0.22686489884472
C            0.38920865410939        3.91187202355312       -0.70262548395798
O            0.53496930747122        4.74547244148096       -1.58768119660880
C           -0.64101311458137        3.63239754056049        0.29644425829910
C           -1.84440983640751        4.28283496503095        0.52820395616374
C           -2.96079301580954        3.78343506627542        1.24770375381551
O           -3.88558247878239        4.59284858310881        1.85843792382234
C           -4.83298243655055        3.76703644771582        2.42789669933324
C           -5.97412183377932        4.04770636401252        3.18239800367386
C           -6.75884241431575        3.00791860285536        3.61654427591817
C           -6.43477518207499        1.68380671080233        3.31578759143883
C           -5.31732127479795        1.38142821807233        2.57645704153471
C           -4.50940357731503        2.42671927597795        2.13386433575474
N           -3.33845808180301        2.45339178377346        1.37949787474241
C           -2.80637260872443        1.28913512348584        0.67624932799434
C            0.18564253666540        2.55107566367552        0.82026500205108
C            0.21464452736217        1.82964595896443        2.02328411304309
C            1.29758938109730        1.05373286922795        2.38572474051628
N            2.20189680056404        0.40769268272277        2.74077618498970
C           -0.72694933524999        2.00583758467898        3.01733702039310
N           -1.48320204422026        2.13844705611304        3.89583543855176
S            4.60095829805939        0.61321672854478       -0.69868283576302
C            4.34630597094026       -1.09198418919431       -0.36039082790916
C            5.27970350306380       -2.10545148870061       -0.25188698393296
C            4.85134731010228       -3.38922693934766        0.01565553045726
C            3.49921063631210       -3.66208068202383        0.17478022024949
C            2.56247446409695       -2.65897773870587        0.06857719903434
C            2.98546215685815       -1.35673401555433       -0.20036498846070
H            0.33245654379803        0.58193596898059       -0.96870004518025
H            0.26780261176423       -0.46187049086466        0.46426324624396
H            0.50914339202276       -1.15901668704939       -1.14516712739134
H            3.05752361971317        2.99048604525673       -1.15794491318239
H           -1.95409809838333        5.26543263486810        0.10070605321197
H           -6.21804562330531        5.07028936599680        3.40790073488819
H           -7.64131007976829        3.21695835869067        4.19890981409282
H           -7.06963927178325        0.88847853700361        3.67017217247581
H           -5.05449082074188        0.36435521016849        2.34655668829223
H           -2.28868563641065        0.63792719039494        1.37700295617868
H           -2.11633263000144        1.59831881659042       -0.10488929276916
H           -3.61982844281885        0.73405685359019        0.21343972262463
H            6.32501629543811       -1.88126642701086       -0.37714802188483
H            5.57182398539638       -4.18582111397208        0.10244987224920
H            3.18026574987091       -4.66970409464587        0.38571956418382
H            1.51610917771869       -2.86477720746711        0.20636907218140
