52
 energy: -10.509006318753 gnorm: 0.000699411132 xtb: 6.5.0 (97a52f5)
C            0.33553803167362        2.70022733103378       -0.05936596753270
N            0.44058483857137        1.25734990406543        0.12355305801731
C            1.54452630620140        0.47734631094411       -0.26670577161157
C            2.82458724132917        0.87194089794532       -0.53893723191669
C            3.45339323298572        2.09659251110329       -0.18510471297433
C            3.28248624612632        3.17593113667434        0.76354147291921
O            2.44677175718102        3.45706090002639        1.61726105552921
C            4.53098657396859        3.79208071015994        0.29504264150385
C            5.25412123300842        4.94260218280039        0.46285503676300
C            5.01197934840221        5.97455872805458        1.42605040200890
O            5.29130065658174        7.29355521634650        1.18728148478261
C            4.94159105146075        7.99262516958635        2.32504958904215
C            4.99604886414917        9.35498210141963        2.63502911368522
C            4.58219379437652        9.77384120484435        3.87363560988780
C            4.11109314834875        8.86410584759915        4.82500882099210
C            4.04745473253583        7.52242693827292        4.54610984451920
C            4.46178793797482        7.08211575195760        3.28856511898226
N            4.52523221000441        5.81781378949455        2.70930771149647
C            4.28667086166484        4.57706859755663        3.43807926470061
C            4.68961308765430        2.67942135959012       -0.63938923245269
O            5.53556835915331        2.37090982997713       -1.47424018324475
C            1.03832683899133       -0.96518677135344       -0.40766538297334
C            1.83280504500053       -1.90834131355111        0.50631094086705
C            1.10526139462268       -1.42410311702269       -1.87081091006373
C           -0.41420492766555       -0.87127530813492        0.05294740828152
C           -1.38065253579579       -1.84459693754516        0.19013585805346
C           -2.64536967763926       -1.47835006592752        0.61734588036541
C           -2.94031997756977       -0.15366573862106        0.90297106971657
C           -1.98063262726948        0.82613055311781        0.76777735270990
C           -0.70898680322738        0.46290435361239        0.34155391833643
H            1.11388347092806        3.05348022120831       -0.73130851852527
H            0.44591863413943        3.19837866214778        0.90129147060616
H           -0.63017279970297        2.95941628453907       -0.48764693062262
H            3.45663298145889        0.16113748300570       -1.04364352916891
H            6.03998000457661        5.12860943780103       -0.24835183936089
H            5.36085942940597       10.04834333113057        1.89886794337816
H            4.62078586983941       10.82228525177704        4.11947648417178
H            3.79341280674347        9.22293802021034        5.79002443104365
H            3.68185129075565        6.81616431852422        5.26978055524143
H            4.62445384321497        4.67219068862167        4.46769119738093
H            4.82658623230482        3.75685081673132        2.97072992622458
H            3.22337890820754        4.34726700331893        3.42977379239814
H            2.88159220121997       -1.94364621084595        0.21557529676657
H            1.43499501194296       -2.92097944720483        0.46006015459367
H            1.77975430748591       -1.57108112016414        1.54053798667679
H            2.13413350884473       -1.45836773231746       -2.22540863436749
H            0.54900666273477       -0.74093040215407       -2.51113773932118
H            0.67590405195246       -2.41833394896033       -1.98508540907269
H           -1.14698371929719       -2.86996209835337       -0.03639075901483
H           -3.40853132719568       -2.23082635104930        0.72826103524617
H           -3.93032008410110        0.11260818806951        1.23503319109888
H           -2.19791753219836        1.85412552959361        0.99642663624138
