48
 energy: -10.462572962599 gnorm: 0.000881650838 xtb: 6.5.0 (97a52f5)
C            0.62851794963946       -0.36745331899915       -0.48849536639048
N            2.08378945751254       -0.24211492286791       -0.37764391792308
C            2.78025400213011        0.91275308405547       -0.67044718497680
C            2.29442026127666        2.20114780742361       -0.87193208580904
C            1.08344831709807        2.73525062036402       -0.40143765721302
C            0.30472918856652        3.86491811721857       -0.89341956017800
O            0.42635249095862        4.66838257069373       -1.80899901169499
C           -0.69351801412172        3.62679308255315        0.14198314268766
C           -1.88733026401388        4.31221700063733        0.42254628854730
C           -2.99534907187884        3.82829485177565        1.11156995441791
S           -4.17136081143499        4.90191394352145        1.84936915773949
C           -5.11735455995614        3.56855062062371        2.48893607622042
C           -6.25908121255833        3.60491077746193        3.26838341721908
C           -6.84585285418637        2.41930470948399        3.65679099072723
C           -6.29780347828647        1.20182797522896        3.27228098177715
C           -5.16223301467773        1.15597601159242        2.49663694545838
C           -4.56076294684911        2.35064311997369        2.09709410377773
N           -3.40006638209569        2.52276065463015        1.30161389672926
C           -2.84622308777598        1.38301418259948        0.56671235288306
C            0.13183428201990        2.56047134790834        0.68223194561167
C            0.17979744388417        1.89447164971459        1.91576582390607
C            1.26683811035011        1.13312247186521        2.29839524163879
N            2.17542630049165        0.50452764682396        2.67277159122384
C           -0.74260180150456        2.12532479705540        2.91747672133378
N           -1.48135389087655        2.30923077012512        3.80138825044036
S            4.48320205908518        0.52243427984962       -0.83683803438470
C            4.23263424572934       -1.15671306708873       -0.39051468008010
C            5.16262611187115       -2.17048672054642       -0.24963652977690
C            4.73381108286242       -3.43162456263480        0.10610898199815
C            3.38454360311717       -3.68330793029658        0.32157251684134
C            2.45198985797232       -2.68139083768311        0.18215144837764
C            2.87550829746244       -1.40095864491945       -0.17793711692970
H            0.20404001741250        0.50760230809755       -0.97354357284062
H            0.18837271692753       -0.48027414177434        0.49945687230655
H            0.37677470812152       -1.23904475169900       -1.08891855560169
H            2.90884845403614        2.86114916740896       -1.46419337459604
H           -1.95487961212522        5.32282498359655        0.05074146879203
H           -6.67335504023893        4.55438279522696        3.56053321772648
H           -7.73558852450159        2.43726287958138        4.26434694160360
H           -6.76609335660285        0.28393055330651        3.58777162348560
H           -4.72771248069973        0.21538609606355        2.20920009978517
H           -2.27120365831551        0.75064017091201        1.23891995130082
H           -2.20487053757654        1.72346590369172       -0.24185846818679
H           -3.65166512911018        0.79548264711158        0.13122483932574
H            6.20498600195849       -1.96303183849113       -0.41961009429683
H            5.45080544808194       -4.22799665839379        0.21904936144004
H            3.06557694744063       -4.67368098535291        0.60232975584753
H            1.40849237338402       -2.86991121724841        0.36020124997661
