33
 energy: -8.752099063716 gnorm: 0.000404660549 xtb: 6.5.0 (97a52f5)
C            1.21436521728481       -0.41898306188860       -0.82796617145830
N            2.54449286474315       -0.23068035006399       -0.24286206264958
C            3.11833127282496        1.06840575888854       -0.18322575047597
C            2.35939814844641        2.24400352922841       -0.24767107336115
C            1.00465770343146        2.40732968774897        0.11953304253892
C            0.02261381138761        3.36733295664627       -0.33882573325682
O            0.00540741037904        4.30559438158240       -1.12396367536817
C           -0.98645396628314        2.73410613816747        0.53526657579866
O           -2.16841905385349        2.94991311673251        0.74213712057157
C            0.04242508663501        1.81143775354119        1.00984806347098
C            0.05565111228560        0.87071625384816        2.04253734773442
C            1.22764293723725        0.31917382548322        2.52810382767763
N            2.19499896467439       -0.13553412071183        2.99640628379721
C           -1.10746032573368        0.53392405452678        2.71081960771203
N           -2.07105776984603        0.22516489323093        3.29199306162457
C            4.53086732885114        1.16604690002061       -0.16821661567886
C            5.31501800646095        0.06775934761287       -0.04275906620288
C            4.74379337572509       -1.23271227395223        0.07396920401580
C            5.53770579760433       -2.37112323191490        0.26379723631999
C            4.96381061890427       -3.61659914084126        0.36658394019950
C            3.58762194140345       -3.75591180411971        0.28323131603932
C            2.78722835037523       -2.65139901032209        0.09234718010060
C            3.34057632457093       -1.37366691687097       -0.01806995630924
H            0.88753674593885        0.48150524092789       -1.34341187260715
H            0.49225591051116       -0.66716928003040       -0.05273684782971
H            1.23742201270173       -1.22439701809190       -1.56023652351149
H            2.85622392324138        3.12768252702937       -0.61629348020366
H            4.98071427804116        2.14287167393158       -0.22304875227992
H            6.38655669568826        0.16701020458841       -0.00958122502869
H            6.60646281795819       -2.25976464521587        0.32990284009935
H            5.58428655860521       -4.48546424229085        0.51487024976757
H            3.14203604760946       -4.73363994972539        0.37031628061637
H            1.71876985219531       -2.76823319770182        0.05108562813200
