30
 energy: -8.045597586319 gnorm: 0.000950720857 xtb: 6.5.0 (97a52f5)
C            0.82263475275183       -0.27596027403133       -0.43992284265293
N            2.24784341929484       -0.18270763282064       -0.11782871473594
C            2.97505444720981        1.01035677937790       -0.17708660698260
C            2.52031847242466        2.30285798962907       -0.23577153962211
C            1.19784084074518        2.76702988103853        0.06613495436871
C            0.42590186298699        3.83809955872298       -0.51362537674082
O            0.59429833785326        4.66800832491914       -1.40134805215724
C           -0.68532618637488        3.52065109639830        0.40820263726894
O           -1.80276548007925        3.98242137197352        0.57012671034111
C            0.14503373647811        2.47236117579581        0.99616641800586
C           -0.01671256945069        1.65213272981928        2.11980440899580
C            1.02426532192574        0.91285390929459        2.64734825601649
N            1.88489450486827        0.29597214762122        3.13916804579708
C           -1.21237373602970        1.62400733535464        2.81075807519880
N           -2.21094226919664        1.57301772366797        3.41333063555901
S            4.69721083212597        0.62477744874478       -0.22386783605294
C            4.39909077232189       -1.10215346500698       -0.03468196512901
C            5.31436071633788       -2.13337677159913        0.06418527099609
C            4.85804746750546       -3.43127249202425        0.19774462257738
C            3.49597875354106       -3.69877834324391        0.23314418466153
C            2.57593560821279       -2.67652971461853        0.13563163173064
C            3.02685471000347       -1.36291193462946        0.00077283290620
H            0.47280175828594        0.64250393536095       -0.90527241682540
H            0.24621811877730       -0.46196279678370        0.46428745552947
H            0.65109358371434       -1.09169203191166       -1.14012473396212
H            3.22975776015333        3.05125915752843       -0.55301827278185
H            6.36770611193562       -1.91339944970047        0.03377465668441
H            5.56498889357242       -4.24120702342936        0.27514839825304
H            3.15455029268560       -4.71557787479493        0.34029582827204
H            1.52035916542090       -2.87863076065377        0.17636333449229
