70
 energy: -15.197948054454 gnorm: 0.000493946967 xtb: 6.5.0 (97a52f5)
C            0.87153693160627       -1.75638783543072       -1.32484143498525
C           -0.45757154118043       -1.92963890963018       -1.46097454746862
C           -1.52390404476663       -1.26449540204577       -0.72251870564579
C           -2.70561048464111       -1.96555910121384       -0.46854087276312
C           -3.74661531123498       -1.39050306240506        0.22266455749780
C           -3.63863733335958       -0.09069449651786        0.67894106886251
C           -2.49554701790083        0.63044377949959        0.42678337912800
C           -1.43147701012218        0.07498994690000       -0.28721474347498
C           -0.23749334938945        0.89440415991658       -0.58117799070634
C           -0.29878129372589        2.09837336715691       -1.22378550025744
C           -1.44088875758250        2.71177788018715       -1.87438177209080
C           -2.56361767457265        1.98905655324819       -2.29081012115196
C           -3.61893191146689        2.60815488119341       -2.91448738051863
C           -3.60303630267880        3.98206885859322       -3.16880224191406
C           -4.74430033439437        4.65275202544064       -3.82328088429467
C           -5.56544528707511        3.97018756597631       -4.72516036791022
C           -6.63573984953718        4.59135674661804       -5.32083307848266
C           -6.94500486426288        5.92617850233928       -5.03751885706831
C           -8.07511901526733        6.60289929108042       -5.67098154129511
C           -9.34718770238068        6.12699217392472       -5.78148597592940
C          -10.42089395921944        6.77038177990431       -6.54653899413861
C          -10.42407551283644        7.92224580883371       -7.32582527087049
C          -11.59374032454036        8.30140240719643       -7.95235250665671
C          -12.75437804907560        7.54988636447205       -7.81247676289997
C          -12.76568176047407        6.40434175948930       -7.04315468403733
C          -11.59328652631671        6.01240172191562       -6.41006535447161
C          -11.30570832348445        4.88033632411575       -5.53113341328726
C          -12.13448048699141        3.87572252003458       -5.04820143845117
C          -11.61503492295920        2.95131664351262       -4.16587306006783
C          -10.28996344416545        3.02965661711720       -3.75679645005071
C           -9.46037356397705        4.02425447162600       -4.23119045360871
C           -9.95791283568168        4.95209184198605       -5.14073778053027
C           -6.10516045898462        6.61864211763370       -4.15921902414975
C           -5.03881411632947        5.99375206144926       -3.56062483954917
C           -2.47082848689170        4.70148487111586       -2.77755616252216
C           -1.41718338915493        4.08322448140195       -2.15006315910933
C            1.06608658524331        0.42124219715444       -0.06909295512446
C            1.83143740525236        1.25218114819264        0.75153174807759
C            3.06202793570157        0.85501239988978        1.21879625660580
C            3.56425022964230       -0.38360954095216        0.86824756464095
C            2.83216285010882       -1.21791149556387        0.05559863959325
C            1.57162234076728       -0.84932380155521       -0.42218895255190
H            1.51342039264966       -2.40054201658124       -1.90537498921067
H           -0.78771387172492       -2.70039103293305       -2.13972162325850
H           -2.79044914607801       -2.98140599726336       -0.81547273071051
H           -4.64535909307992       -1.95462675345386        0.41206103814565
H           -4.45193481165792        0.35906397126117        1.22481764515310
H           -2.41261148726118        1.64773650920847        0.76929569652227
H            0.62006498678500        2.65656089898512       -1.27910424546243
H           -2.59381657287753        0.92722280271632       -2.12758764491894
H           -4.48242490098833        2.03121106203146       -3.19614262100496
H           -5.34060730481924        2.94688172196184       -4.97011931872338
H           -7.24779748426654        4.05634768707224       -6.02678028708060
H           -7.87752677812712        7.57559901579324       -6.08994081684279
H           -9.52456195759614        8.50182618729238       -7.43502493193532
H          -11.60722725187848        9.19243471586181       -8.55858892872204
H          -13.65662388557513        7.86610918764919       -8.31002852956397
H          -13.66075281521583        5.81905421995981       -6.92634200373196
H          -13.16476694482711        3.83564057947972       -5.35532512813070
H          -12.24660968061504        2.16707437249468       -3.78158398336445
H           -9.90618648103743        2.30608623930212       -3.05617764239419
H           -8.44513618653969        4.09744749253997       -3.88868560478600
H           -6.32003971630139        7.65104875105021       -3.94231394351269
H           -4.42934724647827        6.53827660253605       -2.86084904661161
H           -2.41903400747659        5.75530188363352       -2.98852066944939
H           -0.55521240960025        4.65765070223357       -1.85615606589323
H            1.43822160528585        2.21681796891149        1.02347569503633
H            3.63534070851713        1.50979220082964        1.85476244235338
H            4.53145761165770       -0.69394682308769        1.22895647177064
H            3.23066569742565       -2.17921177326970       -0.22116417001379
