48
 energy: -9.758805943350 gnorm: 0.000425755630 xtb: 6.5.0 (97a52f5)
C            0.68402315308964        2.89458221237141       -0.40126220942711
N            0.61089861142133        1.47841864945537       -0.05027478020330
C            1.65724451197527        0.55807230067941       -0.11289564110231
C            2.99362918719296        0.78515885214393       -0.27024587474352
C            3.63101664080474        2.04437181294175       -0.22905628586979
C            4.94699158394161        2.23163137408307       -0.49805069755957
C            5.57418475551211        3.50061577952147       -0.44099461034573
N            6.83319236300572        3.70213027107031       -0.73906197059636
C            7.20065417013891        5.02695523883619       -0.61815821648490
N            8.42686673728130        5.46193207447852       -0.89061519901547
C            8.58179284118507        6.78591731982907       -0.72148076156315
C            9.84199622765374        7.36527139795758       -0.99792682861811
C           10.06011893901350        8.70062676103074       -0.84419615472084
C            9.03092018364659        9.53488963568451       -0.40235424913545
C            7.80043483028030        9.01891506471090       -0.12588084415753
C            7.52858532221370        7.64112320983590       -0.27635611702457
N            6.28868164202495        7.18547516530440       -0.00371067453700
C            6.16399672226946        5.89339182054828       -0.18987032349168
S            4.70809583004302        4.95920993581945        0.04070345685939
C            1.03735347054725       -0.84160224940630        0.00309539617893
C            1.58867822464543       -1.57806358085062        1.23259308900623
C            1.27603456699905       -1.65019545138797       -1.28013983399073
C           -0.44906425464893       -0.54844553005155        0.18019835068783
C           -1.51894499479362       -1.40129765021332        0.35362575175235
C           -2.78665256154684       -0.86505772302223        0.49547881472727
C           -2.97987556379215        0.50756133097341        0.46719180651530
C           -1.91478811952927        1.36633312124843        0.29380389410112
C           -0.64014461551385        0.83373138443252        0.14503177548329
H            1.38677067638056        3.04616206498518       -1.21788598307062
H            0.98826379918454        3.48164614285878        0.46291040833309
H           -0.28670258728660        3.25289251584517       -0.73565827307527
H            3.62821755668380       -0.07323158757915       -0.40508887498822
H            3.05887488576150        2.90285659406605        0.06501427398122
H            5.55021316457843        1.38865522086449       -0.78352955784302
H           10.63261933917740        6.72012741203882       -1.33860393842232
H           11.02902864748896        9.11799690234807       -1.06401296731352
H            9.21327479774557       10.59006016390101       -0.28133182699094
H            7.00518584876765        9.65904670986399        0.21332438712531
H            2.66107267491103       -1.74439424309661        1.14167876577914
H            1.10545728250049       -2.54647203455469        1.35450168621711
H            1.41223635577308       -0.99635964261231        2.13648741732932
H            2.33823664095893       -1.83058766985693       -1.43853717307970
H            0.89105701389328       -1.11386331095871       -2.14651445476871
H            0.77389867157921       -2.61536366213111       -1.22980728150203
H           -1.36005690316348       -2.46511282297240        0.37657628717306
H           -3.63069386520644       -1.52100395054373        0.63121503964362
H           -3.97359470553454        0.90810956879907        0.58312049805905
H           -2.06043969925284        2.43150310071018        0.28465050468568
