37
 energy: -7.742662739778 gnorm: 0.000633739421 xtb: 6.5.0 (97a52f5)
C           -2.50157516800632       -0.13950570399136       -0.12078471575522
N           -1.10122298561794        0.24401737932391       -0.03348594861378
C           -0.08344416239710       -0.70043114986920       -0.04192397945133
O           -0.17791510144772       -1.91464052360349       -0.02880042664444
C            1.14943809303396        0.09882974148667       -0.08290492881431
C            2.40406531974414       -0.44226258817827       -0.08711233442535
C            3.62669307842144        0.30267043183294       -0.11551326536432
C            3.66539992749967        1.69326916891377       -0.12726355200730
C            4.87026144350600        2.34298930663113       -0.14820832941196
N            6.05050841823439        1.74041584827262       -0.16088171683937
C            6.01201414441370        0.41515934559093       -0.15089390226787
C            4.86525532671319       -0.33537879282713       -0.12808667776125
N            0.81478826125186        1.42279590287968       -0.12173706391379
C           -0.50315779765049        1.51558082847787       -0.08631622601523
C           -1.16849118369951        2.78608238042013       -0.11901699592307
C           -2.46848829743124        2.99968670159134        0.15413340754603
C           -3.13080606756051        4.28950008921336        0.12515471436736
C           -4.45271978552691        4.39311747332192        0.56470611119230
C           -5.10867416553604        5.60314743779655        0.55847817630858
C           -4.46386131654680        6.73807526046656        0.11066678473071
C           -3.15982316695825        6.65748500104486       -0.33422503191893
C           -2.49863475802400        5.44973418513188       -0.32918046110445
H           -2.56805329979089       -1.20275896081175       -0.34395489272874
H           -2.99910182280945        0.41170029106567       -0.91619549669579
H           -3.00326931849418        0.04202039802507        0.82735870725906
H            2.47549828755500       -1.51451148744421       -0.06402236728978
H            2.74436645005712        2.24393416457882       -0.11700791253838
H            4.88564785234394        3.42282250304886       -0.15407376689382
H            6.96802145382105       -0.08715604711225       -0.16293979099771
H            4.91158297417889       -1.41070004121139       -0.12268996304571
H           -0.54197285550527        3.62808479963925       -0.34535187423639
H           -3.07081941370084        2.16579973448314        0.45730437546820
H           -4.95816356842807        3.51011663352136        0.91642884661600
H           -6.12698008328810        5.66492716922615        0.90591143148685
H           -4.97786549237152        7.68526863302072        0.10745899599556
H           -2.65801480544114        7.54311171533943       -0.68839760224422
H           -1.48746641454982        5.40161277070301       -0.69090232807040
