36
 energy: -7.595886082648 gnorm: 0.000712073897 xtb: 6.5.0 (97a52f5)
C           -2.50814132428083       -0.11484456481231       -0.11696726823161
N           -1.10596995869252        0.26105211202753       -0.02637555350673
C           -0.09363257647304       -0.68809791120001       -0.06589156317411
O           -0.19667628032763       -1.90120910803767       -0.07855875893036
C            1.14296620434760        0.10438615857800       -0.10034200807613
C            2.39495961157502       -0.44238802306734       -0.12674791763038
C            3.61929987483542        0.29934606387927       -0.14864343230520
C            3.66034315464066        1.68996338133353       -0.13916776534895
C            4.86577900584657        2.33822836441081       -0.15650750523993
N            6.04418203380281        1.73319775099907       -0.18442119071726
C            6.00418187995511        0.40812996332882       -0.19276006874257
C            4.85648022427837       -0.34079585266579       -0.17594783820019
N            0.81586398078902        1.42982483920461       -0.10439459579838
C           -0.50143280486532        1.53004439284755       -0.05534866800460
C           -1.15648726662806        2.80454477892655       -0.05194647230733
C           -2.45463656921390        3.02370358994742        0.23155087848646
C           -3.09777841133672        4.31888110082045        0.23715208155163
C           -2.46016530729707        5.49685344707819       -0.13724532224980
C           -3.14929144339963        6.68252528719675       -0.09467453413882
N           -4.41112166917304        6.81181219554775        0.28385959837206
C           -5.01430835560011        5.68746096913211        0.63555952128312
C           -4.42482710223997        4.44892513094158        0.63103536755088
H           -2.57860210578352       -1.17337685502686       -0.36069915612475
H           -3.00459226898742        0.45395194932008       -0.90048938925501
H           -3.00565408783555        0.05007111709698        0.83631529441451
H            2.46209305184993       -1.51519089241062       -0.12651595914595
H            2.74029214982270        2.24196472249033       -0.11542366365179
H            4.88397218113038        3.41808752162825       -0.14659499214391
H            6.95987558274929       -0.09465469290078       -0.21590965013817
H            4.90132542666996       -1.41615359161687       -0.18626947251345
H           -0.52425925118869        3.64728310593565       -0.25951729071801
H           -3.06657427636299        2.18890215216160        0.51222394794893
H           -1.43691474546156        5.48179425634146       -0.46664340575889
H           -2.64656372444593        7.59303247040768       -0.38647926274535
H           -6.04442255493130        5.77867585508345        0.94756030528719
H           -4.97897227775541        3.57740881507197        0.93452570989449
