33
 energy: -6.961207365748 gnorm: 0.000646479689 xtb: 6.5.0 (97a52f5)
C           -2.48807971918652        0.04415660316903       -0.01434446117457
N           -1.06888493977993        0.34131451304252        0.10244360980871
C           -0.09076019018811       -0.63226538089485       -0.04894453842903
O           -0.23006379984534       -1.83745857291680       -0.15683084862750
C            1.16767530586880        0.12659393217911       -0.07178508215862
C            2.39984072144854       -0.44774701278676       -0.19455123464143
C            3.64406501433072        0.26220297131452       -0.22381534632240
C            3.72530513522859        1.64722525101477       -0.12360061427692
C            4.94663866277545        2.26499409695214       -0.15702484489419
N            6.10486468707351        1.63360643979376       -0.28309262900791
C            6.02594103541073        0.31369518748216       -0.38009869052049
C            4.85926146594890       -0.40541872099145       -0.35666583019061
N            0.87976232788526        1.46156378178118        0.03527100252416
C           -0.42465377758709        1.58832593330459        0.14812660621675
C           -1.08526284471237        2.88732817111616        0.26153411413852
C           -0.47565219691821        4.01842268350479       -0.27803350158840
C           -1.07025072409238        5.25540947571795       -0.17827475991158
C           -2.28135237134632        5.38982186222214        0.47034299435739
C           -2.89239562874324        4.28291480536260        1.02492913118158
C           -2.30115787292190        3.04393329553455        0.92516339298352
H           -2.61531799125708       -0.90558108083374       -0.53047638428243
H           -2.99287246115758        0.82124314863921       -0.58486341368797
H           -2.93764601224114       -0.03665368320900        0.97302169937183
H            2.43724214341430       -1.51899616185274       -0.27477080025729
H            2.82347433659422        2.21999076886461       -0.02162524756314
H            4.99650823114471        3.34084507383032       -0.07730712606814
H            6.96417955359049       -0.21117738324420       -0.48338690796165
H            4.87333452559090       -1.47854325494534       -0.43879420754438
H            0.47027155628093        3.90707898793362       -0.77894513644980
H           -0.58962246124675        6.11995814208068       -0.60602111617824
H           -2.74661942044541        6.35864709974164        0.54900497344998
H           -3.83228950541487        4.39015257843328        1.54124684712028
H           -2.76252278550123        2.19100644865760        1.38892835058690
