33
 energy: -6.590406825287 gnorm: 0.000914228774 xtb: 6.5.0 (97a52f5)
C            1.15409070686520        0.22663624062071        0.87906653816046
N            2.17862387517680       -0.16740572355418       -0.05834840134579
C            2.96957636908410       -1.33374692024509        0.14876541546396
C            2.26074091513710       -2.60212207351073        0.27452427724460
O            2.78924131034507       -3.60384172597285        0.73306644210622
N            0.94872610128148       -2.59827976554093       -0.18766613745704
C            0.03293404625936       -3.65405451125296       -0.22106999772455
C            0.36493814285239       -4.88975448196456        0.31528452697239
C           -0.54185476571310       -5.91399733552097        0.27629111348807
C           -1.76048082410507       -5.66348800876663       -0.30431655980092
C           -2.00695344961420       -4.40803396743565       -0.81382176400744
N           -1.15171075597022       -3.40427824452574       -0.78875528802701
C            4.34655008316112       -1.25762059314152        0.28982827394453
O            5.11132523498702       -2.35815100021050        0.60834068969910
C            5.01953790474701        0.00351080988013        0.11129898553544
S            6.68664400880274        0.30279829332878        0.52551124848342
C            6.59428039927447        1.95127474283700        0.01059683732827
C            5.35753001563595        2.23449545361363       -0.45609867345654
C            4.46513298534388        1.13479559198275       -0.40590013509257
S            2.76202054598677        1.17630670109937       -0.97470678390193
O            2.73888495896392        0.85677742067508       -2.43935409105746
O            2.15832739282593        2.46644088118875       -0.50103845918012
H            0.83546906194750       -0.62715952186671        1.47763862118673
H            0.29525320233731        0.63145560416570        0.34310241216576
H            1.54433765036621        0.99593083725198        1.54651353666572
H            0.61490323556370       -1.74597502346832       -0.63603661186046
H            1.34009174608177       -5.02111673168162        0.75021728195065
H           -0.30780501548315       -6.88313263739076        0.68606697203911
H           -2.51024687369543       -6.43635754168456       -0.36170089881645
H           -2.96267667161305       -4.20317198545093       -1.27413108430500
H            4.50728640495341       -3.11082957626666        0.73772139644177
H            7.41621981535409        2.64059752589700        0.05947626139431
H            5.06416224286290        3.20316726691224       -0.83528594423552
