35
 energy: -8.461127168381 gnorm: 0.000977733399 xtb: 6.5.0 (97a52f5)
C            2.02368205623730       -0.76252597422129        2.01582666991202
N            1.61567626638861       -0.80415754691203        0.64007390977808
C            0.94090632460626       -1.93590884087020        0.10920048357648
C            1.67246571145426       -3.17332317149957        0.07186019436357
O            2.82585028740140       -3.20610912009634        0.50780270585884
N            1.05646195842626       -4.31234657411940       -0.46023099332350
C            1.58344604748190       -5.59906289651528       -0.63005020647577
C            2.86447566569087       -5.90191186139363       -0.18591210614498
C            3.36813670942203       -7.16501418900945       -0.35387352643593
C            2.56661912591804       -8.09479368159676       -0.97011809278152
C            1.30921155513174       -7.71256270480847       -1.38313099514132
N            0.79909342356691       -6.50429565425942       -1.23206273034661
C           -0.41596901318769       -1.82678155510474       -0.29703679743018
O           -1.05812076628108       -2.79570378770780       -0.74352942923430
C           -1.11014012926758       -0.52924756486334       -0.14725588686089
C           -2.50364974604046       -0.50617121741081       -0.11911478403150
C           -3.19017443907826        0.67831526562687        0.03237827885806
C           -2.49778946894463        1.86799987255919        0.15471493282339
C           -1.11511198686187        1.86191438505778        0.11757797002679
C           -0.43233350390196        0.68075273562353       -0.03422975663217
S            1.35624439536436        0.73103839880110       -0.10213425842180
O            1.84829925850266        1.84883882461973        0.78303129663329
O            1.77332690984465        0.73002929576254       -1.55018394175090
H            2.52655174822476       -1.69418951590564        2.27780289566681
H            1.15539276832238       -0.63232113270166        2.66274359832845
H            2.71391102489217        0.06637279663032        2.17768559022275
H            0.10297324733259       -4.21150465493201       -0.79348397104432
H            3.44748456168429       -5.13405964702235        0.28788323018594
H            4.35876265784340       -7.41966809984810       -0.01367730261729
H            2.91469804818035       -9.10280506036043       -1.12717402129364
H            0.67591136105496       -8.43832622372510       -1.87032799841635
H           -3.03491807952385       -1.43761605594773       -0.21563397185710
H           -4.26776870725320        0.67671504160364        0.05658863578851
H           -3.03153885009177        2.79656218977295        0.27439189071819
H           -0.56067642254157        2.78214792477110        0.20548848750004
