74
 energy: -15.955646970640 gnorm: 0.000440929879 xtb: 6.5.0 (97a52f5)
C            0.85510983821744       -1.90829738455495       -0.92473623767364
C           -0.48597968394829       -2.02949031197016       -0.89433456534935
C           -1.44200659300282       -1.17945270908075       -0.19557871153957
C           -2.61825409297684       -1.75134285443429        0.29564489214903
C           -3.56242156789176       -0.99753180857644        0.95380372628909
C           -3.36006041388005        0.35673641051310        1.13714956757751
C           -2.22010291809602        0.95041988032493        0.64829981225921
C           -1.25357853722834        0.21011324594449       -0.03560734809919
C           -0.06646590919957        0.89262796199597       -0.59199022476675
C           -0.15705007466577        1.95823752007606       -1.44175954676527
C           -1.34777690865545        2.47498948736694       -2.09137532270962
C           -2.49514034584053        1.70045992779555       -2.29167838226312
C           -3.60031872401287        2.21452474630090       -2.92268368211544
C           -3.61211637981196        3.52750872713182       -3.39876315984008
C           -4.80780724806338        4.08164959271253       -4.06570566740178
C           -6.09218311799890        3.71161202837075       -3.65967025121698
C           -7.20670088135998        4.22540987814836       -4.27614588718865
C           -7.09462471873279        5.14265498465241       -5.32662423891885
C           -8.29667308312746        5.63941086228238       -5.97011303994934
C           -8.43424986954118        6.75374758302931       -6.74747438871082
C           -9.73094491642695        7.01578770139435       -7.40699371827605
C          -10.90498346814795        7.02557763463776       -6.65169853848484
C          -12.12986074508934        7.23477315635160       -7.24092238941882
C          -12.21193924287246        7.43062984980917       -8.60609632272121
C          -11.06955750826654        7.41923050657014       -9.37280682222793
C           -9.80941565842279        7.22481695206951       -8.80151333799221
C           -8.64377543151228        7.16917921186964       -9.67740475542506
C           -7.38106777685735        7.54969239408045       -9.40341697340330
C           -6.87198396970362        8.12707698278284       -8.16529343709783
C           -5.81751018649645        9.04111894461339       -8.23159469831923
C           -5.29091535120265        9.61302327772067       -7.09640464069308
C           -5.80193433529370        9.28318514930086       -5.85590128343613
C           -6.82711352449060        8.37196032126730       -5.75839987117780
C           -7.36824058389468        7.76637712334436       -6.89428176244298
C           -5.80677992594267        5.49672716225881       -5.74266819445417
C           -4.69251479388868        4.98560844798713       -5.12410315375158
C           -2.45898658974569        4.29658366257777       -3.22333857976345
C           -1.35364228769180        3.78269784399771       -2.58955419421186
C            1.26510932952408        0.44921497520120       -0.12803663122826
C            2.14405100728283        1.37037440945355        0.44435609894133
C            3.39896691421468        0.99374863354845        0.86239578978978
C            3.81118142085529       -0.31593494898314        0.70947909621133
C            2.96593879545897       -1.24081631774934        0.14120781047862
C            1.68006331909735       -0.89224628047894       -0.27963375150650
H            1.40763520383377       -2.68157421627132       -1.43539591353343
H           -0.91541570576495       -2.89111773157193       -1.38108222048861
H           -2.77687154478340       -2.80770083178297        0.15974654223490
H           -4.45908252350817       -1.46340643636407        1.32914278064586
H           -4.09753375744741        0.94774541527120        1.65544379585223
H           -2.06536949967634        2.00808226262258        0.77698748699323
H            0.76369562035464        2.45903477058470       -1.68719215869223
H           -2.50262009278438        0.67896005518161       -1.95727651462383
H           -4.46719144346130        1.59462539136100       -3.07299801941342
H           -6.20359670818203        3.02579581609169       -2.83776315274164
H           -8.18792742691229        3.92972535616853       -3.94594009042504
H           -9.17733860639641        5.03384783730047       -5.84103667142514
H          -10.83893434393528        6.87230953574029       -5.58807885548783
H          -13.02464001459047        7.24188794330938       -6.63990550559665
H          -13.17187591651611        7.58815665133408       -9.07039327849307
H          -11.13857192428724        7.56484563866211      -10.43750368567952
H           -8.84952039917146        6.83351707248969      -10.68186485487310
H           -6.66328318307725        7.49380743582493      -10.20676801948917
H           -5.42063831190805        9.30566655697825       -9.19702217357710
H           -4.48194112038464       10.32110293963362       -7.17432633167522
H           -5.39341489557911        9.73407889748411       -4.96619282314668
H           -7.21942527627730        8.10214292638699       -4.79275363249539
H           -5.69053550063461        6.16868934637503       -6.57335436285226
H           -3.71255107119621        5.26815499953833       -5.46756906330428
H           -2.44989640302678        5.31372793717446       -3.57496655135369
H           -0.47695164306164        4.39348614887308       -2.45695933496838
H            1.82109969692703        2.39047434944255        0.56312398070883
H            4.06159095104386        1.71920112062440        1.30567443319457
H            4.79629130952467       -0.61165549511686        1.03203399566511
H            3.29367127020574       -2.25896625501201        0.01685711580796
