38
 energy: -6.739426101231 gnorm: 0.000957390407 xtb: 6.5.0 (97a52f5)
C            2.08849867312542       -1.09698954550919        0.27899634713080
N            2.91064245523304        0.08150455200903        0.05330908584665
C            3.37393207903722        0.93254608654549        1.04358242431326
N            3.15501419272447        0.79726414149811        2.34722308381455
C            3.73836931889721        1.75823007876794        3.05636833444205
N            3.69715087161610        1.88270593901851        4.43556205076658
C            3.00858616671727        0.97341653152137        5.33817574835078
C            4.43006355275903        3.01877597523868        4.81726340388047
C            4.70642583149473        3.58207841137693        6.05920824296244
C            5.47517740591570        4.72128459200823        6.10549394712641
C            5.97054242086396        5.30407591788073        4.93935139024140
C            5.70703083617382        4.75745292121200        3.70552886644991
C            4.93132215215707        3.60460770449770        3.64530383636871
N            4.49534536175285        2.80877693008412        2.57476722736384
C            4.74949459070309        3.00668749023516        1.15310261150468
N            4.09735931475161        1.92985259307571        0.41810744883732
C            4.09598554411218        1.71396514596024       -0.96862692218238
C            4.66426294801246        2.41006086592572       -2.03017541816183
C            4.47532506824328        1.92792092879403       -3.30389416892824
C            3.73293969654847        0.76978042917599       -3.53248157769549
C            3.16466119786457        0.07322245807677       -2.49175848188966
C            3.34638808562217        0.55015893632285       -1.19736502303133
H            2.03328487194147       -1.30563571085081        1.34480135388806
H            2.52336802860500       -1.95595894413186       -0.22674143239532
H            1.08423761016673       -0.92342441913536       -0.10066921122139
H            2.47395881680050        0.22184792536238        4.76178767492497
H            2.29623935585864        1.52477333242026        5.94730682724162
H            3.72965379409681        0.47781323191964        5.98412514207449
H            4.32293419076715        3.12678058850884        6.95463686605639
H            5.69906639094577        5.17164993159422        7.05850675836280
H            6.56981685150256        6.19712049521402        5.00712401355956
H            6.08685109170998        5.19911753976373        2.80178420736142
H            5.82440930414292        2.98708526025863        0.96311111860252
H            4.34547485936350        3.96977675636104        0.83530516698081
H            5.23532174621811        3.30229516583076       -1.84567543874358
H            4.90844102956685        2.45265798937197       -4.13970036237680
H            3.60255023615041        0.41525726375843       -4.54172116924022
H            2.58996405783777       -0.81956548996205       -2.66153397258629
