32
 energy: -5.955343898751 gnorm: 0.000422921556 xtb: 6.5.0 (97a52f5)
C            1.20964473184596       -0.05402984052197        0.47819529845855
N            2.61840580985414       -0.04177100833100        0.08101849843317
C            3.24573426927525        1.29345406730664       -0.02931850246369
C            4.50787147006319        1.28019897582294       -0.89365542617258
C            5.44337217925659        0.13165178914552       -0.48630751609703
C            4.72572699970579       -1.18309628386638       -0.41541762500624
C            5.41003415522821       -2.35501646037310       -0.61675228262454
C            4.77499140286853       -3.59904942969550       -0.56086097280320
C            5.47230115201710       -4.82199167381625       -0.77304048041437
C            6.96288381894267       -4.81163826593356       -1.07906091748776
F            7.60768172570207       -4.24196949573354       -0.04874111160895
F            7.38458277267557       -6.07483572833260       -1.25192663663585
F            7.16536330568206       -4.09687976019842       -2.19735992376200
C            4.80375462588201       -5.98237710397891       -0.70592697683968
C            3.38581282094006       -6.02905674993779       -0.42338936230276
O            2.83942660846977       -7.12089068143753       -0.37312631181055
O            2.70195100072683       -4.85224978927641       -0.22166868845114
C            3.39400340551630       -3.65380529980911       -0.28923834085398
C            2.70677485460607       -2.46270882200280       -0.08351257829466
C            3.33740536335300       -1.22674270039716       -0.13669445699251
H            0.87915859542733        0.94606403871384        0.75053816926443
H            1.07202087853640       -0.70028937538854        1.34256452879423
H            0.59542493131653       -0.40940950079377       -0.34669814976025
H            3.47878241875776        1.63486158990763        0.98444076461297
H            2.50471549338605        1.99037634925223       -0.43668900926132
H            5.02958374610258        2.24558869163995       -0.83090525105239
H            4.22404243005299        1.16017101030676       -1.94665312405623
H            5.88866556709957        0.34256737668246        0.49331376417353
H            6.28235884361842        0.05250120153399       -1.18941973786805
H            6.46583307353843       -2.32919738277227       -0.82191262939632
H            5.32670946179383       -6.90773724178240       -0.86646160989406
H            1.65357208775898       -2.52678249593336        0.11255659817316
