45
 energy: -8.906393181904 gnorm: 0.000573259572 xtb: 6.5.0 (97a52f5)
C            2.52706283076778        0.08700688912155       -0.27088033928803
N            1.05320942012497       -0.04411810149609       -0.36272229427061
C            0.34097971962485        1.22969848084548       -0.09090759308677
C           -1.15754928841801        1.10171085769633       -0.35013454578714
N           -1.72855495843096       -0.01652016168956        0.42707621719873
C           -3.00784336054912        0.04971363872311        1.00683665044131
C           -4.01236660217459        0.80406413728017        0.40145864694512
C           -5.30216212347665        0.81546928853112        0.88176041100334
C           -5.67758342130097        0.08319683578298        2.00542836610922
C           -4.67281425338514       -0.66320628443210        2.68720423150724
C           -4.98136112174190       -1.38707328194899        3.87024163206021
C           -3.98230322733313       -2.05150639426469        4.54775492407922
C           -2.67017880466869       -2.01134029878185        4.10302333768121
C           -2.35167731132914       -1.32611749858142        2.96136222362204
C           -3.33566245216366       -0.66829163123965        2.20823545277310
C           -6.35196155356334       -1.41831470341617        4.38841231787078
O           -6.63256110617538       -2.05503458050138        5.39212410926858
C           -7.37515308847413       -0.65632727914300        3.66266572465809
C           -8.68228011909665       -0.66164704746912        4.13485436654249
C           -9.67147556624927        0.03685958553316        3.48781816446039
C           -9.36733890995747        0.75815868649956        2.34752691388519
C           -8.08176790372490        0.77744855569469        1.86379475715245
C           -7.05072967307799        0.07651026338077        2.50296265201633
C           -1.01901101761764       -1.28916212310465        0.15971335915741
C            0.47133246674571       -1.14445120656972        0.44118227891048
H            2.87817991273016        0.85844276312011       -0.95246853387134
H            3.00275592008859       -0.85354140793376       -0.54026550082930
H            2.82065650685927        0.35152360015403        0.74266125219038
H            0.78410672213959        2.01915998882564       -0.70762077648550
H            0.52132948876212        1.50746266047803        0.95191584147821
H           -1.35123883735928        0.92149584070233       -1.41156912496922
H           -1.67911409121061        2.02590636421501       -0.08064341237776
H           -3.77789234570364        1.34849053543202       -0.49618703368673
H           -6.03585428816911        1.40250317616949        0.36083666963794
H           -4.23625285974633       -2.59009292981000        5.44437195475824
H           -1.89890041151050       -2.51387194063484        4.66345987282300
H           -1.32445221697697       -1.25342375899812        2.65586587705602
H           -8.90546171649816       -1.22717502775722        5.02314588418303
H          -10.68044511679955        0.02331104648979        3.86627921955760
H          -10.14317949760382        1.30589734922336        1.83785769703301
H           -7.87383313619672        1.34244823551007        0.97409811812275
H           -1.17528432636702       -1.53768018696545       -0.89441775909629
H           -1.47421108533541       -2.10402345120539        0.73040297176137
H            1.01281335724502       -2.07081965846623        0.22125841968575
H            0.64364944729838       -0.92241982500058        1.49792639811985
