39
 energy: -7.524585737066 gnorm: 0.000805099326 xtb: 6.5.0 (97a52f5)
C            2.72471466756471        1.41056848161770        1.37417217905443
N            2.94615434555062        0.45639910722808        0.29521087600079
C            3.66617316329554       -0.73616878040144        0.43105807182436
C            4.39601622982161       -1.22332701614794        1.48156760096126
C            5.01659003096818       -2.49284234268998        1.39086546026575
N            5.72202671136187       -2.92969345025226        2.43643341420694
C            6.27474591333885       -4.13644225538476        2.27642695089730
C            7.04705599132960       -4.68547795222383        3.33110395470087
C            7.63340466028282       -5.91153577375695        3.22605680131273
Br           8.63990615288018       -6.55002784854605        4.68793786063663
C            7.48203308745718       -6.66346266790511        2.05601252741939
Br           8.27519714729743       -8.36406858329519        1.86561260713561
C            6.74784178919078       -6.17238790933438        1.01785190320302
C            6.12108890987800       -4.90235146895424        1.08375864918952
N            5.41494294176953       -4.47049260635164        0.03366593603948
C            4.86304806977563       -3.26467785438858        0.18619116189258
C            4.09447545727017       -2.73615521779704       -0.87931572772172
C            3.51288664579142       -1.50228507060918       -0.76456269318883
N            2.69851416605337       -0.78913551088349       -1.65226642028653
C            2.17714874093504       -1.32625620273045       -2.90246133947144
C            2.24075517752413        0.50398485007094       -1.03331319505064
C            2.72417675383463        1.69156619465506       -1.85387853521351
C            0.73083741143052        0.50349832313888       -0.84037598442811
H            2.06911942842245        0.97423554763240        2.12524344469360
H            2.26618614988838        2.32021624386476        0.99298614956154
H            3.67291277025364        1.67074281677657        1.84056125515242
H            4.49977582853156       -0.64938020514789        2.38219323772408
H            7.17007540875330       -4.11612218438879        4.23568843012974
H            6.63875935133899       -6.75973212450299        0.12302936181577
H            3.96981046030940       -3.31273684133840       -1.77558345577532
H            2.98688373032466       -1.75667350805552       -3.48798118296983
H            1.70597587908413       -0.54119167656203       -3.48948537660507
H            1.44097283895821       -2.09997098420882       -2.69442304355593
H            3.80529747491681        1.64832300021518       -1.97374817396502
H            2.47410010389321        2.63190684787332       -1.36566837674855
H            2.27237758543373        1.69196315454714       -2.84441005155530
H            0.42921512768201       -0.35853090596211       -0.24763323936862
H            0.21466170717933        0.45536618900121       -1.79787549470627
H            0.40298199043106        1.40348618519177       -0.32294554321356
