60
 energy: -13.020949003816 gnorm: 0.000184633013 xtb: 6.5.0 (97a52f5)
C            1.38267240642643       -1.18513783035998       -2.01116403713640
C            0.13838598754085       -1.36643772875503       -2.49411100894656
C           -1.12681597147514       -1.02780962968935       -1.85776586147495
C           -2.25129321517885       -1.80707810859777       -2.14518764243141
C           -3.48041818694334       -1.52778370795205       -1.59447400076294
C           -3.62490457865892       -0.45198090303291       -0.74000699962411
C           -2.54069419645928        0.34224614516751       -0.45290286950401
C           -1.28312584686547        0.08784099183570       -1.00734775222297
C           -0.16297894284181        1.00733888033496       -0.71466043998355
C           -0.29118193257002        2.36213584141393       -0.86131966166631
C           -1.38436289040176        3.04900847948073       -1.52449219455147
C           -2.07434114385655        2.46946618485742       -2.59718752644722
C           -3.12213766575302        3.11573339252264       -3.19695710433515
C           -3.55522232343553        4.36679114189816       -2.74111413253722
C           -4.68618606555423        5.04916269360785       -3.34551543194524
C           -5.81315117400162        4.47583613950846       -3.86189511967883
C           -6.80351272913046        5.18482445197840       -4.67905646682946
C           -6.87282311271738        6.51476276499252       -5.08133608975926
C           -7.92001598261633        6.91621037903187       -5.88504396537341
C           -8.89289165074381        6.01192053479758       -6.29444101482515
C           -8.83478435452884        4.68874685133214       -5.90722719472558
C           -7.78391005008347        4.27385356036738       -5.09918436920330
C           -7.47365947426194        2.96972707194073       -4.51776500234502
C           -8.16188805572425        1.76468727412771       -4.58306705142269
C           -7.69122615264855        0.68884800168547       -3.85960799352132
C           -6.56206317199287        0.81356485237745       -3.06091189811203
C           -5.87501867265937        2.00702936854265       -2.98730341766050
C           -6.30652635504034        3.09371106770297       -3.74408089537352
C           -2.82198648618104        4.97825726699158       -1.71479886892636
C           -1.76233304274749        4.33755840855068       -1.12397030202861
C            1.06863570624200        0.45416207532420       -0.11667264668984
C            1.56699070984006        0.99974572312819        1.06901693377628
C            2.72881728285744        0.53383759296641        1.63735797217003
C            3.43074114000429       -0.48876673787802        1.02856615463252
C            2.96512841956439       -1.03902853652573       -0.14263976270905
C            1.78024940636096       -0.59670036333104       -0.73789473618250
H            2.19814444625787       -1.57347554711123       -2.60139808914795
H            0.04659277553135       -1.88703566139058       -3.43455235262013
H           -2.14240593963326       -2.64866010907410       -2.80801725805409
H           -4.33024024992117       -2.14863180131637       -1.82727221271170
H           -4.58602063428866       -0.23264468372459       -0.30422791342533
H           -2.65375634525351        1.18926027087984        0.20200415686133
H            0.49815762639668        2.97996011940887       -0.46823696687677
H           -1.76600253507403        1.50263656822484       -2.95411651646343
H           -3.61900985456043        2.66783874765508       -4.04034194502887
H           -4.60916522318258        6.12120634560676       -3.41453062114579
H           -6.11726872516453        7.21302078578762       -4.76750065008362
H           -7.98438376830825        7.94496386387704       -6.19997861436317
H           -9.70286935945072        6.34839733503400       -6.92077508105880
H           -9.58531459732751        3.98297974242922       -6.21700993738818
H           -9.05127865120167        1.68669347499528       -5.18337894801375
H           -8.21296037742372       -0.25321840691321       -3.90324328406531
H           -6.21865543850259       -0.03264114271473       -2.48899117750127
H           -5.03081670996717        2.10590600353770       -2.33027626657414
H           -3.11667552375623        5.95756719259521       -1.37847712302844
H           -1.22340441208254        4.81129158691548       -0.32142023286215
H            1.01909474424575        1.79500429301607        1.54481797976695
H            3.09394878431149        0.96752648779583        2.55412584346223
H            4.34483772763838       -0.85182228237258        1.46961503159524
H            3.51937460702612       -1.83058677350804       -0.61791542291333
