39
 energy: -7.524174975352 gnorm: 0.000810966410 xtb: 6.5.0 (97a52f5)
C            2.86788680748043       -0.42702058409565       -2.01324028192437
N            2.95148424280686       -0.24982125424525       -0.56929823855285
C            3.65510059488421        0.78219036915006        0.06080255865254
C            4.44014576645419        1.77441662029086       -0.46115082659453
C            5.03674004676466        2.73354331341074        0.39261362825663
N            5.79706339627699        3.68412268391064       -0.15463502394758
C            6.32434421577570        4.55174681137990        0.71499046876359
C            7.14768742952862        5.59526985858539        0.23371343146055
C            7.72143999159024        6.51853230809036        1.06101283644860
Cl           8.72466399626747        7.76859944186575        0.33773302247064
C            7.49274881773017        6.44004594429959        2.45193914265568
Cl           8.19235730055315        7.58407077753732        3.58943309359434
C            6.70098527315596        5.44286251162815        2.94670970808127
C            6.09318101789887        4.47295962211224        2.11698417237091
N            5.33062917076928        3.52528054281616        2.67185728004937
C            4.80202536733753        2.65408416924648        1.81004688042765
C            3.97978567207222        1.61887153508357        2.31753003979709
C            3.42266308924510        0.70187838541414        1.46735283728750
N            2.57923983066268       -0.38647939036340        1.71990785921776
C            1.98527435320106       -0.68380748070260        3.01668613592449
C            2.18550872304469       -1.06571935727270        0.43608543429808
C            2.66186750178573       -2.51140948624498        0.42720303580649
C            0.68686297506477       -0.94113141886727        0.19891176811480
H            2.34983686184697        0.41951903876962       -2.45972843607304
H            2.32638308968067       -1.33813643682041       -2.25797054373452
H            3.86846832172111       -0.49378310074816       -2.43615686027988
H            4.60644670987067        1.83419093222840       -1.51951543108208
H            7.32625966979401        5.66089197583689       -0.82401995874702
H            6.53137179899988        5.38968826181196        4.00660776312660
H            3.79799571383283        1.56051559026784        3.37342674720805
H            2.75343008673907       -0.67472641689993        3.78769278175257
H            1.51709329215414       -1.66589847098503        3.00679946629049
H            1.23160992727297        0.06364222400158        3.25795070074426
H            3.73509165962872       -2.55202296207896        0.60595033380737
H            2.45955597455232       -2.98408377068777       -0.53243026937129
H            2.16579967395897       -3.09164377139842        1.20344039721175
H            0.39088821434768        0.10657233017299        0.21893673784940
H            0.12419619144439       -1.46819856847083        0.96770282949369
H            0.40852723380409       -1.35443277802686       -0.76932522085393
