39
 energy: -7.451997999914 gnorm: 0.000915866287 xtb: 6.5.0 (97a52f5)
C            2.70356716118685        1.44742475257261       -1.50219073083194
N            2.92235348473774        0.36108085982931       -0.55626343502680
C            3.63812897961879        0.48781221946788        0.63982713408179
C            4.36538933623791        1.53524480427367        1.13727310447362
C            4.97993868209602        1.43548764062703        2.40899014359476
N            5.68250474362407        2.47744039861012        2.85878968439850
C            6.22674479001655        2.30791205393719        4.06879596499269
C            6.99024844748139        3.34941058087386        4.63225231125420
C            7.60473071935190        3.29235842745920        5.87308259341191
F            8.37469322494794        4.43995252093843        6.34967539402076
C            7.44506818004984        2.06622311074802        6.64724776471965
F            8.03901385093317        1.87683487707269        7.96927777638298
C            6.69153513625213        1.04839320497585        6.08416966425073
C            6.07208212897174        1.11618545227098        4.82049985586381
N            5.36970834283498        0.06678808368097        4.37908997335516
C            4.82341177087807        0.22523906065151        3.17151744982745
C            4.05740789714086       -0.83678832025102        2.63244025499543
C            3.48120925040071       -0.71290586643033        1.39693883488469
N            2.67186825061604       -1.59647614647241        0.67303624572581
C            2.14723321118459       -2.84923610244122        1.20027535630660
C            2.21506500862784       -0.96603768203308       -0.61491526767253
C            2.69756272761768       -1.77756986772246       -1.80910794361016
C            0.70529840895383       -0.77159195753129       -0.61383034400475
H            2.04764018454832        2.19537933617570       -1.06105828044687
H            2.24752952746895        1.07435654136430       -2.41640523935407
H            3.65250446398759        1.91606847544257       -1.75516987123014
H            4.47110376197234        2.44011301085143        0.57044988460338
H            7.10085766550589        4.24815685811051        4.05456314338720
H            6.56821656289446        0.14121428688513        6.64583912458986
H            3.93065550748686       -1.73725377776630        3.20193749461374
H            2.95461035693136       -3.43762648023963        1.63187669249711
H            1.67987618219517       -3.43190598371535        0.40944034420075
H            1.40739601498991       -2.64526136293138        1.97199087334584
H            3.77868350615406       -1.89820744793681       -1.76688580271222
H            2.44754262295563       -1.28163605410888       -2.74545865592723
H            2.24510094841304       -2.76774253475304       -1.81750796787479
H            0.40362894126702       -0.18227669065650        0.25045091546602
H            0.18861794677274       -1.72895240565561       -0.57041029136736
H            0.37820207269601       -0.25017787617540       -1.51193414918506
