41
 energy: -8.472239478294 gnorm: 0.000194999735 xtb: 6.5.0 (97a52f5)
C            0.97382372895830        0.03287802953345        0.67027233304206
N            2.36829188161777        0.03705710439489        0.22379020569508
C            3.02094212894524        1.27498683821692       -0.00806225641805
C            2.28839747431922        2.45424557250259       -0.15303554322840
C            2.91611325383947        3.66752172617451       -0.30532657136038
C            4.29223245167825        3.73119028820003       -0.31404804000719
C            5.03217241065041        2.57325682948556       -0.19535537633200
C            4.42048162467461        1.34018065417405       -0.06723177683106
C            5.28693120288535        0.08214362880839        0.04418474248328
O            6.19759911735657        0.02876256693798       -1.08330103521038
C            6.06716352097749        0.11896451010038        1.35728391680621
C            5.41220378059324        0.38923700324637        2.54701477121475
C            6.09809920117113        0.39235752496910        3.74278822396795
C            7.44882629510027        0.11567294749378        3.76289745452079
C            8.10898494266370       -0.16910240787934        2.58636572745310
C            7.41905257427368       -0.17081207701769        1.39192300909998
C            4.45793906360537       -1.20195962700898        0.01215997599010
C            5.11822166175871       -2.40580748768373       -0.09690035116412
C            4.43248011368464       -3.60509115453484       -0.12040511695250
N            5.16460324853449       -4.86437733160503       -0.21407508941248
O            4.52169480324554       -5.92485475609235       -0.29255328844569
O            6.40690339240338       -4.83142786964883       -0.20971232899146
C            3.05285656236570       -3.59636990736472       -0.04895163591952
C            2.37502676362681       -2.40755981012926        0.05484340384119
C            3.05861062102145       -1.18880170525313        0.09954028250088
H            0.75104244367038        0.93238833244503        1.23950258682006
H            0.78636455158369       -0.81247904523706        1.32839042490899
H            0.30618644792405       -0.02434134374990       -0.18700472507894
H            1.21408133700016        2.41197721940972       -0.16789409030859
H            2.33375885041489        4.56793336395924       -0.41261185398260
H            4.78889715417974        4.68204737078690       -0.41669137122525
H            6.10618556250333        2.63218379548916       -0.18067824464670
H            6.70361512342157        0.86097525431971       -1.15401324740870
H            4.35530564444816        0.59007673671029        2.52499243724006
H            5.57794900399678        0.60741115641843        4.66168958952650
H            7.98665370004686        0.11681322280049        4.69672278020426
H            9.16286815290846       -0.39378800124996        2.59960019279180
H            7.92631845029839       -0.40889930792975        0.47348546603438
H            6.19093193254555       -2.41721369485997       -0.17066564532476
H            2.52432695565378       -4.53370443179371       -0.07975561384929
H            1.30013286945133       -2.41430171754084        0.07547567795534
