31
 energy: -6.068781725793 gnorm: 0.000713564456 xtb: 6.5.0 (97a52f5)
C            1.27872479571933        0.01565985397412        0.24623621284835
N            2.70867712780479       -0.01790175529890       -0.06868918382739
C            3.39166545044250        1.24353677428844       -0.07203568220207
C            3.23224149034581        2.15245947405037        0.97496381661373
C            3.87711825500640        3.36799648231736        0.95480841216869
C            4.68946993478306        3.70168764050450       -0.11112832881467
C            4.84806386269519        2.81703583956575       -1.16041850119825
C            4.19821441520891        1.59521464045738       -1.15732939761804
C            4.34461402956304        0.61709196466219       -2.27122744117517
C            5.17231775110285       -0.59379372100738       -1.84620487577712
C            4.51470323797171       -1.56104733900983       -0.89674124407893
C            5.09828874783558       -2.81671959478996       -0.80901743013526
C            4.58284971713799       -3.80814391281204       -0.00050546470470
C            3.45621754955051       -3.55523116073061        0.74899055641746
C            2.86342311294806       -2.31663961267115        0.69023826411414
C            3.36976474237602       -1.29035517491012       -0.11511135508256
H            0.83926567298577        0.94494590622101       -0.11364447600783
H            1.12337637459969       -0.04446839148755        1.32159123944814
H            0.76507423249300       -0.81355926421008       -0.23688862596521
H            2.60574066528724        1.88321896585216        1.80716183416226
H            3.74978968046632        4.05921406677508        1.77202694697774
H            5.19749427016551        4.65218400895383       -0.12538965043608
H            5.48016016119732        3.07462488468978       -1.99302474672059
H            4.80067970311795        1.11700458423198       -3.13514827263844
H            3.35224241442935        0.29145365005679       -2.60364160292185
H            6.10830515403844       -0.24584332648685       -1.39354935769020
H            5.47455455792513       -1.15398347935810       -2.74076803241667
H            5.97809456617761       -3.01964856699429       -1.39649741102154
H            5.05772399500272       -4.77488881255477        0.04350995716891
H            3.04580249945705       -4.32321148580966        1.38468866091323
H            2.00000183216546       -2.12136313846956        1.30113517959986
