73
 energy: -13.615318375855 gnorm: 0.000704333806 xtb: 6.5.0 (97a52f5)
C            4.28463015132589       -0.61986302996286        1.43902325462465
N            4.21119617075495        0.75908141786808        1.02218759424032
C            4.54781911860110        1.12855187186211       -0.25982101197603
O            4.98268165195863        0.35109893822770       -1.08424811085468
C            4.35243049926900        2.57171223660878       -0.65792691671583
C            3.04430513906430        2.76584105036613       -1.40022776540235
N            5.48466130826835        2.98418374580772       -1.46613423930257
C            5.65088704803735        4.30315934220769       -1.84728155513511
O            4.94300296641934        5.18262761318623       -1.38498649338788
C            6.72252350497822        4.59532993577365       -2.83406988714175
C            7.93846958647258        3.94052700245837       -2.69699856393294
C            8.95656305830065        4.14842588066811       -3.59709200491446
C            8.77010170697231        4.99962464602915       -4.65750009023191
C            7.56452409110674        5.67835754145843       -4.85238435328611
C            6.52292713429204        5.49284975137960       -3.89721894133728
C            5.29479935377449        6.16325380338785       -3.99608862442791
C            4.28251772848564        6.81366239809685       -4.22804915353798
C            3.20954008597464        7.62277055993999       -4.61622490993314
C            2.43746606122223        8.28241808656922       -3.64206914173860
N            2.81669372427766        8.27486896976672       -2.27597987485481
C            4.04372210215897        8.72732290992670       -1.79534681241593
O            4.91575492434825        9.15561689976157       -2.51921327545956
C            4.26093345284124        8.70376974407010       -0.29354094162782
N            3.02374816003543        8.29553110860838        0.38816075305033
C            1.90062914511045        9.10902060869626        0.44480909784504
C            2.07690105741714       10.59069794807248        0.43894901374729
O            0.78199334242663        8.62713264793708        0.46241665440858
C            5.43443509448285        7.79145494536200        0.11781542942791
C            6.74376352248317        8.18812383300076       -0.56147386579464
C            5.58997669586469        7.76442296343879        1.63649816092773
C            1.31357154943710        9.00646606809438       -4.03415536318246
C            0.98739799826167        9.13748406548891       -5.36422396557336
C            1.77344788975503        8.55487297413666       -6.32969553602048
C            2.89302397954765        7.79381787714121       -5.98577855744103
O            3.68262311463229        7.22064084858000       -7.01881042052903
C            4.57144850751356        8.14665198444025       -7.67251547716124
C            6.01476003469802        7.64243452304269       -7.63625354624409
C            6.26709313290753        7.06642489612662       -6.26194283708504
O            7.52523932566518        6.47102700482993       -6.01394005108079
H            4.64387754646018       -0.69988924906137        2.46519976226842
H            4.97512137375339       -1.15465949137383        0.78745893503338
H            3.30550301950743       -1.09249055974084        1.36420583440833
H            3.74993713652124        1.41187527582748        1.65979077843198
H            4.36813227163360        3.19701451842458        0.24729197338805
H            3.03335473593705        2.15668231824748       -2.30326759343296
H            2.91970969639591        3.80689789284747       -1.69940798220961
H            2.18910598724470        2.47655565473862       -0.78909543371144
H            5.91377646657602        2.21412720796892       -1.98442377160061
H            8.07978657009196        3.26913836149441       -1.86790756927613
H            9.89654642651373        3.63521613499546       -3.47576275749911
H            9.55516755855031        5.15333023715831       -5.37657377579381
H            2.06460226226416        8.20714103808384       -1.59164328518073
H            4.50099571627501        9.72434181590510        0.02717854501994
H            2.87182641161002        7.29490573766546        0.30237297904271
H            2.84999181505357       10.89565102377304        1.14281238135119
H            1.14744192565635       11.07910026585945        0.72794551890497
H            2.34966731021666       10.94560826281034       -0.55404305885394
H            5.16628731786574        6.77806974382962       -0.21980210733969
H            7.03411301796734        9.19881715219046       -0.27651241145238
H            6.64550894107051        8.16901548944871       -1.64729463205605
H            7.55724188947013        7.51657388682274       -0.28584158232295
H            5.84709836636722        8.75389368676430        2.01352720887793
H            6.37832805522334        7.07720356088896        1.94534009649583
H            4.66516525803896        7.45749284821663        2.12559214454375
H            0.72101116210972        9.49126542420090       -3.27833946044220
H            0.12189305929493        9.71211275544497       -5.65080006315640
H            1.53156553192558        8.66534330287556       -7.37168997237489
H            4.48541203896608        9.10628316201497       -7.14914403970075
H            4.21082416559106        8.30095550341336       -8.69621583164679
H            6.73422174264809        8.43544384475762       -7.86854715713014
H            6.16564844347658        6.85853982127729       -8.38636140127590
H            5.52417493792301        6.27320803657248       -6.11851640735832
H            6.11461872253431        7.83729972318934       -5.49700353432267
