41
 energy: -7.662455718387 gnorm: 0.000704297732 xtb: 6.5.0 (97a52f5)
C            0.82518378286004        0.03109767756971       -0.18050065147231
N            2.27721991057915        0.08897493466228       -0.08729934250693
C            2.79705331618237        1.01570983240774        0.91989645065484
C            4.31722968049914        1.00555967828575        1.00379186831277
C            4.85976927293921        1.91777506188867        2.10213012830689
C            6.39486075580320        1.85621077690164        2.23918034911937
C            6.89894979346906        0.46400911507576        2.54402077404835
C            7.66359018207389       -0.20186212309647        1.59784812204041
C            8.10849594997633       -1.48974391068772        1.81476979472195
C            7.78745425055512       -2.13689558627262        2.98858708406223
C            7.03046474364212       -1.49274941804370        3.94070777649649
C            6.58106683814603       -0.18423948722838        3.74803940852867
C            5.77428722658816        0.43909025128997        4.79636195009900
C            5.79648607845108        1.73034334560094        5.16491301760592
C            6.63064843452553        2.78802289846633        4.59518762841428
C            7.12587295344091        3.77903905386930        5.44612035636143
C            7.91036169116193        4.80496818659012        4.96998008103805
C            8.21263183397818        4.87027987717371        3.62683911736037
C            7.72243630305810        3.90981227505990        2.76593364757214
C            6.93075460185994        2.86808793270233        3.22585829386489
H            0.50982915233998       -0.70831645464937       -0.91772719868927
H            0.40835796672445        1.00040563585829       -0.45698903267406
H            0.40400119942259       -0.25690679674909        0.78250175847381
H            2.69521091285290        0.31091625769561       -0.99541005214422
H            2.36992179576981        0.73899211854811        1.88968263508961
H            2.43200532445437        2.02804236098136        0.71175689928575
H            4.74505567803695        1.29264478466564        0.03600500042105
H            4.66208778785304       -0.02129178076093        1.17299969932568
H            4.40019766497836        1.64987980800626        3.05797288046558
H            4.54896445501398        2.95223237733691        1.91515823050485
H            6.80362403459328        2.12831493451045        1.25319973275101
H            7.90704429375298        0.29627877561048        0.67466296529767
H            8.70100737498710       -1.99028109742346        1.06606431065841
H            8.12869503623662       -3.14505440706997        3.16009033352076
H            6.78152411444836       -1.99711901002873        4.85907965222845
H            5.14367948397308       -0.23322608795318        5.35629076152455
H            5.18278292931284        2.02548461782381        6.00123896781293
H            6.89095853618423        3.72690354740643        6.49585395871082
H            8.28845892306351        5.55520809901360        5.64551735064653
H            8.82756405077948        5.67142528110153        3.24963240002619
H            7.95364168543297        3.96896666386048        1.71591289213360
