27
 energy: -5.576577247622 gnorm: 0.000370190212 xtb: 6.5.0 (97a52f5)
C            0.67580284331527       -1.91020706018846        0.48884371335961
C           -0.66831325565164       -1.91509072871345        0.49288168027045
C           -1.54918564622305       -0.79696464124558        0.15149480424393
C           -2.74387941339165       -1.05396198143319       -0.52466577277711
C           -3.60451604297811       -0.03426490086781       -0.86351199126630
C           -3.29399380202765        1.26727464593270       -0.53038525895519
C           -2.12489199782934        1.54237100205293        0.14931486637437
C           -1.25021352893320        0.52785135121978        0.50476380846660
C           -0.00438327750693        0.83823962367754        1.27387005147932
C            1.24019049963811        0.53696157365577        0.49909161037734
C            2.10730224276105        1.55755133798261        0.14244717398917
C            3.27587976014282        1.29094408258481       -0.54150217562375
C            3.59348964311331       -0.00802939099852       -0.87781245125236
C            2.74051613638069       -1.03369739896260       -0.53756443838879
C            1.54662186668788       -0.78547486664611        0.14327724656417
H            1.18295157912248       -2.83747581303771        0.70305217644472
H           -1.16730206569014       -2.84603079171735        0.71032486681414
H           -2.98447584362918       -2.06993856262629       -0.78827788861283
H           -4.52006276485143       -0.25285108983622       -1.38898109782842
H           -3.96551026900427        2.06766928709975       -0.79582685164899
H           -1.88664703900479        2.55812156153784        0.41573549570911
H           -0.00009950197220        0.26120408926409        2.20512733810640
H           -0.00760310611124        1.89007357922646        1.57948648953582
H            1.86382890094175        2.57126578799218        0.41184107492970
H            3.94167828106148        2.09590566450315       -0.80760622034786
H            4.50885887797529       -0.22002383145614       -1.40628693469174
H            2.98707692366471       -2.04774252900010       -0.80307131527157
