32
 energy: -6.346480002883 gnorm: 0.000646912992 xtb: 6.5.0 (97a52f5)
C            0.87413149520442       -0.32665228176174        0.25061682297118
N            2.33078735982487       -0.31971987104711        0.19685653551422
C            3.05633180656960       -1.03359826438056       -0.76807174674877
C            4.13568988442129       -1.79669531189582       -0.38061033498322
C            4.80681156952389       -2.67365189501225       -1.25865081316333
N            5.83043531136677       -3.39398187740848       -0.79557252987048
C            6.38866586472988       -4.21156078769576       -1.69457146919072
C            7.48640915935965       -5.01870192343468       -1.30393479250790
C            8.09457430419127       -5.86935324847876       -2.17803610373640
Br           9.54610664006860       -6.90197198310659       -1.56215206833445
C            7.64052498498141       -5.96335713790067       -3.49738812332391
Br           8.45630282199815       -7.12561810696111       -4.73667909327308
C            6.58706625096646       -5.20584084916483       -3.91448884730855
C            5.92471422185188       -4.30846438343017       -3.03982320942750
N            4.89798025069145       -3.58766128315798       -3.50311709384731
C            4.34110247673753       -2.77158818658987       -2.60570254114724
C            3.26455468789495       -1.95042145371307       -3.00283042510002
C            2.64548473652116       -1.06527562139762       -2.14797876634115
N            1.69780333161257       -0.16352728676781       -2.65217939139026
C            1.67343602816694        1.24792252210890       -2.28821038097826
H            0.49602440736885        0.63275516690137        0.60311054329461
H            0.51347714122043       -1.11320093149857        0.91365945462966
H            0.46403028670394       -0.51525996814047       -0.73951426001133
H            2.72370442074508       -0.28786680689547        1.13590349859400
H            4.45714674719557       -1.76713906558304        0.64305070683206
H            7.84407958574978       -4.95531676977814       -0.29119650310151
H            6.24620434305636       -5.28725000697826       -4.93168440547570
H            2.95371889781352       -1.99049185628038       -4.02937901129575
H            1.40766310367299       -0.29146637437992       -3.61981446326896
H            2.13596291216624        1.39189070240816       -1.31384105518099
H            0.64902401023704        1.61692356112967       -2.24092562427518
H            2.22977095738846        1.84525158029068       -3.01084450855484
