32
 energy: -6.274265212009 gnorm: 0.000853457974 xtb: 6.5.0 (97a52f5)
C            0.91872935924158       -0.46908475621917       -0.06428429392562
N            2.36776768650866       -0.31271228081079       -0.08892154324177
C            3.10460401962639       -0.24840288972776       -1.28025999804038
C            4.25893804413513       -0.98941890888335       -1.40557798275276
C            4.96189061560366       -1.10880381750344       -2.62321615131348
N            6.06401580661438       -1.86038913348475       -2.66511822357747
C            6.64998632166073       -1.92521278614855       -3.86606266331910
C            7.82489117415592       -2.68696716294802       -4.01999500006539
C            8.51689531985628       -2.83360773454891       -5.21151079166676
F            9.72787060115641       -3.64995582180593       -5.24548893895483
C            7.98680086312300       -2.15052012404361       -6.38614739925853
F            8.61524965635916       -2.22960292332511       -7.70276535886158
C            6.83318617947517       -1.40032761768761       -6.22330516113111
C            6.13720213055993       -1.25734622361844       -5.00698684082562
N            5.03138490838397       -0.50520997031349       -4.96973256629577
C            4.44688634572840       -0.43380903540857       -3.77222360997518
C            3.28923071870411        0.35844878166690       -3.62054035671221
C            2.63726142464593        0.50425498883661       -2.41592039387618
N            1.59634803155760        1.43671651694606       -2.30026874886014
C            1.48303714736620        2.35839747429163       -1.17683122961740
H            0.48648649356776        0.07342011248899        0.77627979212355
H            0.64312708149400       -1.52064534575627        0.01683133394554
H            0.48379743387814       -0.08306661701913       -0.98450421311213
H            2.79687712451442       -0.80275227252266        0.69442735172956
H            4.62092460248803       -1.54136973432775       -0.55910359405355
H            8.20702316309466       -3.18600115443771       -3.14899978894131
H            6.43638759537470       -0.89076602560598       -7.08153462302175
H            2.93811789555766        0.90487931389394       -4.47508496225038
H            1.26973885851910        1.87377793220348       -3.15993926491125
H            2.00084088745377        1.95539816312758       -0.30896181993767
H            0.43807175145663        2.51575118304065       -0.91156410557803
H            1.93480075813874        3.32099786965209       -1.41576885372140
