22
 energy: -4.471281508262 gnorm: 0.000791168784 xtb: 6.5.0 (97a52f5)
C            1.09025429427705       -0.17456496893621        0.07806735180580
N            2.41623833839351        0.36713281377956       -0.16430494572062
C            3.12715236643111        1.16960761313270        0.72387390158354
C            4.43533906294294        1.56042664566437        0.42239126772452
C            5.15089057585397        2.34980034958250        1.28609776920383
C            4.59718188880250        2.78710271393724        2.49368570740979
C            5.38604280265675        3.62079131188063        3.38356306848185
C            5.01855195746753        4.02892808063443        4.60508621485022
C            5.81232211490448        4.82304551383422        5.41404857170752
N            6.48417915531234        5.49399248451822        6.08506133015214
C            3.28742058725455        2.39689864637510        2.79188668766834
C            2.56987820465592        1.60770278845468        1.92875126879333
H            0.71921082747223       -0.73070648250473       -0.78329688591777
H            0.39048588386141        0.63454290835939        0.28231524424557
H            1.11226095993154       -0.84308525165981        0.93793661018737
H            2.88324104934367       -0.01697290420235       -0.98393970294091
H            4.87560368434202        1.23270142943195       -0.50289299727645
H            6.15722087136113        2.64047495793126        1.03786008314430
H            6.35240148291805        3.93122222983889        3.02570684709193
H            4.06759165048274        3.73471139540482        5.01002645378818
H            2.83140202452631        2.72456031780770        3.70864990797437
H            1.56467021680789        1.31759740673456        2.17711624604334
