27
 energy: -2.999062362572 gnorm: 0.000527817474 xtb: 6.5.0 (97a52f5)
C            0.62806279744437        1.73654542773447        1.10517171962888
N            2.00789901032420        1.84342056510846        1.19256532630806
C            2.78102605164539        0.77464106941482        1.47232937848474
C            4.06781913087134        0.78396686667202        1.80241296836548
C            4.84417302959439       -0.23008758329055        2.11043438570213
C            4.60564274330760       -1.53981380637920        2.15680917422593
C            3.53088123886623       -2.28873141930720        1.74172614960594
C            2.69617503805037       -2.03459010058802        0.80119971525063
C            1.58307683297593       -2.84862111601804        0.43506884442443
O            0.86177491079612       -2.53475395447330       -0.49309902182527
C            1.42008406924884       -3.96314780084690        1.20500746162001
C            0.34435520532278       -4.65194758241889        0.75114782864724
C           -0.12760663585083       -8.73333953420356        4.22015367414854
C            0.40005357874890       -8.37797711162492        5.28710279203276
C            1.39256526605527       -3.81635374158728        3.27861023218400
C            2.98174283440670       -5.29745659640375        1.47692899031585
H            0.34735255957779        1.17104146689147        0.26586737744037
H            2.29406282149389        2.76508573052108        1.51923858022400
H            0.08624947819951       -2.44665292664452       -2.50124785368665
H            2.87048080642952       -0.17934286367136       -5.15582242136348
H            6.69262208925702        4.19088695642247        0.04349817752148
H            8.83187423774017        1.45964721681168        3.74365379537066
H            8.34824327642086       -2.84988031282184        4.64918887607919
H           -0.50647170989361       -4.03273162752611        0.81983338443724
H           -3.03905224352528      -10.60665877233384        1.14100703204840
H            6.56159440414269      -11.72506174084130        7.34517269511282
H            6.68012917866105       -7.09031670914800        4.95946073790988
