78
 energy: -17.185393515152 gnorm: 0.000635522849 xtb: 6.5.0 (97a52f5)
C            4.22204425375408       -0.49518972604594       -0.42968673546133
C            4.15402179097817        0.84491560643571       -0.42056103171781
C            2.78140642604116        1.18871076226132       -0.18020066614524
N            2.03509022547661        0.06300034429396       -0.06497325488370
C            2.89378630136083       -0.97934201853375       -0.18108061636295
C            2.61020099500191       -2.36696910389832       -0.03750178518214
C            3.72317220890809       -3.34484643310224       -0.05663367870681
C            4.80135891277425       -3.23069240607397        0.82811069644795
C            5.83050632442063       -4.14360259292298        0.80931866534526
C            5.81097997730288       -5.19264025932787       -0.08914897575348
C            4.75554362513363       -5.32666399246087       -0.97018563198833
C            3.72333318627089       -4.41719310444060       -0.95545476578698
C            1.28621761418725       -2.84440040534553        0.13460104639913
C            0.90625550802571       -4.19067297535557        0.36929723973662
C           -0.45420838894459       -4.24823433356768        0.40788702852832
C           -0.96511609900639       -2.93643736416119        0.21752259066844
N            0.13014150252077       -2.10411776697634        0.06669627531701
C           -2.34226882708013       -2.60852911123011        0.08523641103873
C           -3.34816569020091       -3.69742888772787        0.02801083616805
C           -3.50406759669518       -4.59188749832971        1.09396652572958
C           -4.43918094627658       -5.59937866982017        1.04018672506185
C           -5.24295649122726       -5.74181726160528       -0.07428521355947
C           -5.10715762169801       -4.87134244961341       -1.13836230152283
C           -4.17348025202732       -3.86224986164074       -1.09114697981650
C           -2.77456847422987       -1.25546455328227       -0.03120935879636
C           -2.05586649873515       -0.09088216347228        0.21267533264107
C           -2.92045975166937        0.97785356649148       -0.03916916327536
C           -2.59467752603175        2.36193188767208        0.04711633495306
C           -3.67734121707615        3.35128211197420       -0.06742247987647
C           -4.93477960294205        3.10801119591219        0.49479780346414
C           -5.94839899753021        4.03320502327963        0.39866003878951
C           -5.73873244312614        5.22413734670005       -0.26846857707019
C           -4.51099970603707        5.48175315444765       -0.84628689943709
C           -3.49456596125164        4.55926887813568       -0.75091633252774
C           -1.24877266075344        2.79049658813122        0.23216269356369
C           -0.84809792531526        4.10428442241991        0.59454761170724
C            0.51265077970845        4.15709534335940        0.58976981226877
C            1.00527500923095        2.87370162704189        0.24282153012475
N           -0.08651320940440        2.05847556817391        0.05182518043942
C            2.36579248216988        2.53476127010491        0.02174201795313
C            3.38375197468678        3.61600600915496        0.02406462670406
C            4.13127481666690        3.90317146141867       -1.12362754356396
C            5.07372005687468        4.90538005401111       -1.12008504416220
C            5.29434211853772        5.64602841921320        0.02483668916088
C            4.56770118390650        5.38010805312797        1.16922991776872
C            3.62408099345165        4.37889844819684        1.17207593174322
N           -4.17082421827863        0.49320557052165       -0.39895453939249
C           -4.08908869927665       -0.80254120670414       -0.38528475806105
H            5.10496962119795       -1.09251068096808       -0.58475526817057
H            4.97549778018088        1.53019140725519       -0.54575518774436
H            4.80855182256045       -2.42114194684677        1.53763617687752
H            6.65227423407115       -4.04164283684862        1.49927076792467
H            6.61834929108057       -5.90645775527813       -0.10251072289671
H            4.74165094384091       -6.14426965727576       -1.67232531626803
H            2.90613251690496       -4.51380066811936       -1.64946646692834
H            1.57993980377550       -5.02327606743189        0.48191995334147
H           -1.04328981724522       -5.14066791974846        0.53312172575016
H            0.14585133358715       -1.11956907259660       -0.19920352900328
H           -2.88927283951476       -4.46933686345348        1.96911398728561
H           -4.54737620380633       -6.27745382164891        1.87089988938645
H           -5.97520873626557       -6.53168592467286       -0.11381506469672
H           -5.73229289820171       -4.98533518473654       -2.00889803110081
H           -4.05298166452788       -3.19711811849890       -1.92891189101700
H           -1.07503554120387       -0.02259335820901        0.63791206823734
H           -5.09904980857706        2.17892621527911        1.01190225273646
H           -6.90832491556601        3.82786189793013        0.84353706309809
H           -6.53330029822301        5.94845977335133       -0.34324971705807
H           -4.34979232782898        6.40671222974394       -1.37535635516562
H           -2.54934151656135        4.75131733813407       -1.22823245018232
H           -1.50893133603681        4.91844520042321        0.84013667249461
H            1.11330638782451        5.02695250267821        0.79425981912955
H            0.00553727186591        1.13364244654431       -0.37158903650348
H            3.94963463252568        3.33222309258762       -2.01804014630824
H            5.63984588740703        5.11454191430193       -2.01303274223707
H            6.03289804858813        6.43100552338726        0.02531392403913
H            4.74186641597946        5.95726178763766        2.06257883200642
H            3.06630290523315        4.16147329933322        2.06678622861982
H           -4.92347045563584       -1.44818331909114       -0.60997066431682
