29
 energy: -6.086571769302 gnorm: 0.000892982686 xtb: 6.5.0 (97a52f5)
C            1.14578144888445        0.11804981046559       -0.14955759482741
N            2.58506525590735        0.04919640865085        0.08075462873545
C            3.19558703141199       -0.82693726819772        0.98813444796583
C            4.14297523798457       -0.28961751964350        1.87104391203005
C            4.68336304037651       -1.03848039346263        2.88416181299548
C            4.29564184172842       -2.35019011167266        3.04953663667344
C            3.39606041523745       -2.94127851701705        2.17940703617674
C            2.86238151621757       -2.20336528475292        1.10554611972268
C            2.06514652103760       -2.90652859231360        0.08529733401948
O            1.83434681024543       -2.42965194017299       -1.01068780381752
C            1.56216495099472       -4.25971544666493        0.39624381936896
C            0.63700649841332       -4.86550674305672       -0.44145246438985
C            0.17743495615692       -6.13639670442683       -0.18280931268157
C            0.64299177492479       -6.82747615191221        0.91925366072709
C            1.56526104258767       -6.24365706821810        1.75672676221318
C            2.03372050204654       -4.96138069061848        1.51136813063825
C            3.02442042218178       -4.35000889038618        2.40909881869259
O            3.51362654230920       -4.98554951054148        3.32373428110337
H            0.91943554275918        0.67757798659685       -1.05734456970958
H            0.64566598772428        0.59129156981015        0.69547039472848
H            0.74081496511868       -0.88359567084979       -0.26603421611085
H            2.99249355180551        0.98049054887280        0.00572501760450
H            4.42065442932298        0.74453381684851        1.76580373442024
H            5.39728902380450       -0.59837104543899        3.56093964008118
H            4.69710087361703       -2.94225558819516        3.85442474620039
H            0.29033304964283       -4.32165594546715       -1.30360772920334
H           -0.54250102684043       -6.59349743311284       -0.84159476684457
H            0.28632206053048       -7.82424273380735        1.12051572949627
H            1.94034573386915       -6.77330089131505        2.61574179399018
