32
 energy: -6.880078437152 gnorm: 0.000703933754 xtb: 6.5.0 (97a52f5)
C            3.28715020416841        0.72836135168221       -0.21034086836192
N            4.01647955373942       -0.44544997133767        0.21513396675083
C            4.05584141432431       -1.61806493865032       -0.54838010330017
N            3.62500119052272       -1.52229956700333       -1.83547571397922
C            3.66048294611001       -2.60802304628201       -2.55315720417377
C            4.11866084336323       -3.81148409009744       -2.01506486963860
N            4.28192499130168       -5.05544309389346       -2.54980120202761
C            4.77950687568667       -5.80763753305748       -1.58603444229211
C            5.11537129508887       -7.16058659987370       -1.72588266226610
N            5.39483383104484       -8.28350570228988       -1.83582728497840
N            4.94317913811447       -5.07865635973985       -0.40278275775899
C            5.54403895286927       -5.53169524566205        0.85733224256885
C            6.98198859642023       -5.14170658056996        0.97627826249232
C            7.96301796254453       -6.07826164976191        1.26205294852264
C            9.28420181098893       -5.69794283072716        1.37418350020024
C            9.64059457447694       -4.37662477366968        1.20377265239428
C            8.67350164930825       -3.43595642181235        0.92049249164815
C            7.35527191536571       -3.81954212969218        0.80876555641300
C            4.52645547930220       -3.79092587481523       -0.67751866863329
N            4.50757538401976       -2.69413762179117        0.07996231307650
H            3.61626486724963        1.61521023723312        0.33120521118883
H            2.21874265349707        0.58700615813957       -0.05065457297231
H            3.45785496831383        0.89104171118222       -1.27357798171296
H            4.14547686018830       -0.53511225932066        1.22094092527167
H            3.33357808119620       -2.56488935409225       -3.57845916664974
H            5.43068100379306       -6.61654264092864        0.92352509400547
H            4.97165703490300       -5.10018954647248        1.68272463942242
H            7.68545106227154       -7.10940150907434        1.39692942488186
H           10.03909452566199       -6.43450148911775        1.59622582878978
H           10.67314585779427       -4.08020484114323        1.29166210178955
H            8.94822411630206       -2.40227438261250        0.78488801257211
H            6.59642036003034       -3.09356940471468        0.57805232676650
