42
 energy: -9.038458592267 gnorm: 0.000973939499 xtb: 6.5.0 (97a52f5)
C            1.04044685681462       -0.27985823872974        0.08126956497962
O            2.39666404746254       -0.34871490708147        0.39441051993757
C            3.12318994073797       -0.69584289127953       -0.71065189327640
O            2.62661266558536       -0.89898328402437       -1.80293118153690
C            4.58470562343273       -0.82408995638509       -0.53929949188898
C            5.14477848074280       -0.56474127354664        0.71166250440235
N            5.65405607750036       -0.36512843043978        1.73591928891961
C            5.32659477314680       -1.19209297226825       -1.60480345569121
C            6.75743433180593       -1.37591632172932       -1.62041138947517
C            7.61267115508858       -1.31698121423705       -0.55498440548312
N            8.85249691185727       -1.65361294142166       -1.04312516570067
C           10.06894467013983       -1.71463108645663       -0.27174542319376
C           11.28507021109997       -1.48760044853706       -0.89538509668245
C           12.45977075227722       -1.54520128578467       -0.17902624518435
C           12.43113410148461       -1.83458621604933        1.16999355514289
C           11.22520884297244       -2.06770669422492        1.79945567186948
C           10.04996072766459       -2.00849415116691        1.08384884722278
N            8.83205323621041       -1.91256682536599       -2.35168587399450
C            7.58163568418336       -1.74136929109112       -2.74279987418381
C            7.15092329077846       -1.90990370605070       -4.13643345053260
C            7.76244719305430       -2.87613480333729       -4.93365465743285
C            7.38457239859410       -3.04869578206992       -6.24322526791033
C            6.39559781735319       -2.25491815297371       -6.79312779243654
N            5.99536201917046       -2.43918768749410       -8.18739276719111
O            6.53873747502878       -3.33447866046047       -8.84799675335338
O            5.12730781915783       -1.69288755432044       -8.65957357858431
C            5.79475344191021       -1.27875464848719       -6.02047598951751
C            6.16797139178114       -1.10225340085749       -4.70994206409549
H            0.48504110584077       -0.00152183806396        0.98004715133648
H            0.70884773031194       -1.25719648179859       -0.27836873007307
H            0.89347519598911        0.47043172979975       -0.69974617655494
H            4.79333475758229       -1.39276497939929       -2.51685972850333
H            7.37757533260586       -1.06687681587899        0.46220396774724
H           11.29235154056757       -1.26659972117733       -1.94874403182727
H           13.40109073938283       -1.36524025725038       -0.67248888240235
H           13.35029190739856       -1.88103080429334        1.73129507323305
H           11.20291700476997       -2.29846714556633        2.85222383349546
H            9.10914432877354       -2.20016330399742        1.56946510492375
H            8.53633458574596       -3.48853887978841       -4.50330271104318
H            7.85103682163374       -3.79944691137246       -6.85902317798793
H            5.03615692454885       -0.65788647659047       -6.46723459035028
H            5.73047008781609       -0.30849528875125       -4.12993523712254
