34
 energy: -7.015422398013 gnorm: 0.000535988745 xtb: 6.5.0 (97a52f5)
C            1.04686971781087       -0.11792579581784       -0.64181789165341
O            2.43954388005417       -0.15037957883231       -0.63495628311929
C            2.91651977400879        0.00251802314957        0.64067444657072
O            2.17621727030467        0.14399631678024        1.60040813867838
C            4.37473175493282       -0.01478509333972        0.79437640550472
C            5.15270414213909       -0.17977096723295       -0.32513572515589
N            5.82930799301215       -0.31883753450294       -1.26658826415780
C            4.97725261910200        0.12370798802985        2.03958419270030
C            6.35075498790342        0.12166455886850        2.31988635270578
C            6.66314765812537        0.27349693818385        3.66194978226235
C            5.56006986782438        0.40252017013386        4.50517927915450
C            5.59133966109751        0.56095409337971        5.90048697828396
C            4.48972898439423        0.70132181306720        6.74380046848982
C            4.80342964424547        0.83643523298457        8.08740785249134
C            6.17633834999414        0.80658088163329        8.36894749474490
C            6.77986233531891        0.91147337256367        9.61699507776885
C            6.00409826307280        1.06563151339405       10.73966096593870
N            5.32908637809512        1.19580927669021       11.68360272181442
C            8.23719299672220        0.85928258430419        9.77185124304428
O            8.97661470665236        0.73934851537951        8.80845974201050
O            8.71451298766080        0.95233564123917       11.05316883097883
C           10.10641406364542        0.89608629407410       11.06013592762103
S            7.03591043654316        0.60921246119922        6.87116580473430
S            4.11593074145389        0.32946752377492        3.53549331613125
H            0.70050644787893       -0.24802381520876       -1.67037501836383
H            0.71470345206140        0.84631615706274       -0.24744991542371
H            0.67224722830317       -0.92755836502529       -0.00944320051190
H            7.09598380602769        0.00990978142190        1.54747401538579
H            7.67689531813767        0.28923107265422        4.03327691273940
H            3.47617086668921        0.70234699293021        6.37163018877428
H            4.05911484051508        0.95183299771010        8.86015889182335
H           10.45357398003438        0.98231370446169       12.09303654061204
H           10.49554331201105        1.72199565941128       10.45838165243788
H           10.42277153422542       -0.05843841452194       10.63066307498260
