60
 energy: -12.703274806208 gnorm: 0.000496577054 xtb: 6.5.0 (97a52f5)
C            2.06218718564405        0.55308263722359       -0.30183562766218
O            3.44804289334260        0.42579469291243       -0.23600762012069
C            3.79460747945959       -0.84304361743465        0.14839334181998
O            2.96391574530986       -1.70319147543002        0.38989731211576
C            5.23565723694912       -1.11730159832678        0.25425228263085
C            6.12960668792146       -0.09823458368172       -0.03240100457157
N            6.91640030643372        0.72761533519981       -0.26321522885669
C            5.70724836844682       -2.35127855238989        0.62489308382159
S            4.70039257963963       -3.72971694848845        1.01503449201251
C            6.04226740969433       -4.81339923915487        1.35588119517809
C            5.89162763233478       -6.12950474886885        1.74368878743973
S            7.11886995839471       -7.33232642068072        2.12254746138716
C            5.97885078176092       -8.61548368405136        2.48202227203647
C            6.32054928475267       -9.88793288727028        2.86488830721292
C            5.32424955832930      -10.81629948441312        3.12056699060611
N            4.45486263902680      -11.56228540387164        3.32568620671382
C            7.72425827911931      -10.29932647951715        3.01476516490723
O            8.64079862992389       -9.52319904095712        2.80128109803811
O            7.93499261621792      -11.59558564390714        3.40639281816068
C            9.29929502063505      -11.85630041923844        3.51462070213124
C            4.65512071771510       -8.08123311251515        2.30014709068651
C            3.34100185574933       -8.62539357570717        2.43810381940476
C            2.33904898427750       -7.73929897020466        2.15443858273889
C            0.90822811499994       -8.00325114160492        2.20105427236218
C            0.00148626364557       -7.02090362258648        1.80461577083012
C           -1.35360586224395       -7.25070935019237        1.83738255052845
C           -1.84599612088154       -8.46904206996208        2.26843746164841
F           -3.17994471371231       -8.69541362993251        2.30069775102132
C           -0.95899641483796       -9.45288402504813        2.66679218113127
C            0.39733571776914       -9.22681936977446        2.63530247818150
S            3.01231940355716       -6.17753968413275        1.70508184697665
C            4.63997836382022       -6.74097759901570        1.90275756017614
C            7.23755206764973       -4.10158157263670        1.16233874666565
S            8.92570144259086       -4.48159435115571        1.29450464174507
C            9.42020174727990       -2.86300976894484        0.82822263136295
C           10.81335305394382       -2.45280452363766        0.72465455515416
C           11.83378707167513       -3.38855129974186        0.89002967124025
C           13.15550396022672       -3.02248301338924        0.79375203194850
C           13.49962094826551       -1.70912408447270        0.53062472924190
F           14.80058332937224       -1.34779972523689        0.43721401240961
C           12.49863117801459       -0.76883031249607        0.36598273570635
C           11.17530289870771       -1.13139951822141        0.46089234875533
C            8.32270709272021       -2.08632768279538        0.58754593646025
C            7.07882633808036       -2.76625087269804        0.76741857982240
H            1.81726030203139        1.57177795890889       -0.61240618028233
H            1.64037066930957        0.34724238361683        0.68538571747512
H            1.67477796691262       -0.16649759770434       -1.02782869454841
H            9.43435390406819      -12.89260723632705        3.83398475361035
H            9.73276745246299      -11.17471392436832        4.25117004777387
H            9.76873923274993      -11.69684768700037        2.54041747594226
H            3.17356675902834       -9.64639531404522        2.73281367353860
H            0.37793639781794       -6.07076015985943        1.46720566491809
H           -2.05226367057231       -6.49225581169491        1.52989190904695
H           -1.35444747151368      -10.39578481469736        3.00242533211163
H            1.07167242963097      -10.00180802011871        2.95367914819486
H           11.57294271115015       -4.41249635858651        1.09441593585876
H           13.94185806841041       -3.74621519645930        0.91937285510212
H           12.77924967735939        0.25019906905311        0.16378092648304
H           10.41068221775471       -0.38550008931227        0.33582803812017
H            8.37295562168417       -1.05641676296563        0.28042937545456
