68
 energy: -13.952762642813 gnorm: 0.000505651799 xtb: 6.5.0 (97a52f5)
C            2.09514258407209       -0.72711060046955        0.21399241543072
O            3.47885041550521       -0.56019043325323        0.19703073260497
C            3.80202538784367        0.74301431135783       -0.08513357788268
O            2.95576544263831        1.59920518400937       -0.28719874919457
C            5.23826760592317        1.05614572913469       -0.13076315247022
C            6.14771190490405        0.03868362423740        0.11195820755903
N            6.94254044260027       -0.78808669949886        0.31030915282979
C            5.69272600174312        2.32287298540487       -0.40314115925496
S            4.67376582139744        3.71208160246061       -0.72778804369153
C            6.00480080666778        4.83342659260085       -0.95931545393883
C            5.90465554427309        6.17512746489937       -1.26605934436393
S            7.23192122978863        7.29804244351716       -1.51204625705038
C            6.20802337798892        8.68161335733449       -1.84565736377730
C            6.65736763941155        9.94550084186209       -2.13875388452508
C            5.74399559916172       10.95827987704844       -2.38630228891697
N            4.94578987898799       11.78073730560009       -2.58888350135105
C            8.09233063141405       10.26183898737201       -2.19821548915046
O            8.94222403902828        9.41063454553477       -1.99019280923958
O            8.41029321872081       11.56209042342086       -2.49931496531569
C            9.79341204812257       11.73163938308024       -2.53158003552591
C            4.84179021956877        8.23701775570464       -1.75036210173308
C            3.58172864539377        8.89460357796664       -1.89493376925894
C            2.50202019380682        8.07901261337543       -1.69314308383452
C            1.10299275257303        8.46511853742845       -1.75158534121961
C            0.70505948729012        9.75321729146371       -2.11655097252176
C           -0.62197622639187       10.09525559162795       -2.15265507085605
C           -1.62071537983023        9.17239982802570       -1.82455909937784
O           -2.94287628562021        9.61191772551871       -1.88304329159711
C           -3.90790035804255        8.65595226146983       -1.51268795134393
C           -1.22189853499227        7.88154288032007       -1.46269447538210
C            0.10618678139834        7.54183116003692       -1.42992252682423
S            3.03008911683750        6.44149170916229       -1.33136017551617
C            4.70568419348011        6.87925602490090       -1.43433383838186
C            7.20121034062519        4.12866292787446       -0.77542338973008
S            8.87778823158577        4.57164052930080       -0.82894614578568
C            9.39965119121657        2.93957556500566       -0.43473130020011
C           10.79622681347246        2.56721033293909       -0.29013235832173
C           11.19046988197247        1.24673149933745       -0.06290161509160
C           12.51458008819797        0.92375133523202        0.08430486531209
C           13.51402823269533        1.89995584924375        0.01439512962943
O           14.83286303884825        1.47937498672568        0.18352621762172
C           15.79824064900228        2.50316444374266        0.13458145257395
C           13.11921589708318        3.22139201018228       -0.21841391255894
C           11.79399871089852        3.54093035561760       -0.36694400992437
C            8.31754138717057        2.11557615480164       -0.28707581909904
C            7.06035299566437        2.76783012546068       -0.47448150777083
H            1.86711350381438       -1.77168838665629        0.43835378901116
H            1.69158360128135       -0.45723986659438       -0.76501038844454
H            1.66743510250090       -0.07721709531644        0.98130607131247
H           10.01717030585492       12.77467125888898       -2.76704092015941
H           10.21482871458811       11.07600322572730       -3.29749202618467
H           10.20716348497804       11.47081229521176       -1.55439208830148
H            3.50772880833815        9.94218221117726       -2.12630390142384
H            1.44957289772451       10.48477421748754       -2.37455221387154
H           -0.92485229874208       11.08829146123342       -2.43453455605072
H           -4.89214829570401        9.12152790317699       -1.58489291929372
H           -3.73768039763788        8.33987753754265       -0.48218519021320
H           -3.86511527641486        7.80515383578614       -2.19456901688123
H           -1.96141338276185        7.14532669216423       -1.20639445463964
H            0.39876549607020        6.54538669900356       -1.14813358131936
H           10.44527770424639        0.47377678575206       -0.00582954246135
H           12.81443945218280       -0.09428985732292        0.26023108691331
H           16.77909206859514        2.05230147783174        0.29356562065913
H           15.60708787938176        3.22931350069883        0.92636237636574
H           15.78015514907838        2.98085566412508       -0.84627963196749
H           13.85948131928831        3.99776710434629       -0.28031365656237
H           11.50459004955440        4.56245430682802       -0.54202750735224
H            8.38728242967767        1.07168903080856       -0.03832769071501
