94
 energy: -19.498925526615 gnorm: 0.000970443293 xtb: 6.5.0 (97a52f5)
C            2.90023926390302        1.13957157592274       -0.96460849769837
O            4.24442660858497        0.80224803826853       -0.80608386629282
C            4.36838576592551       -0.49162655589917       -0.36086033710247
O            3.40352205279800       -1.20896166123264       -0.14696900418461
C            5.74653278488690       -0.96914584196264       -0.15244128504541
C            6.79245942864588       -0.09971446869650       -0.42309672689833
N            7.69186564403367        0.60562879438924       -0.64368288519301
C            6.01439273402423       -2.23559403046796        0.30413355047462
S            4.81063285286570       -3.44817738851696        0.69720872968141
C            5.97111844824644       -4.67630149145215        1.17477689005700
C            5.67160873247912       -5.94454819980266        1.62899812548340
S            6.81151757287748       -7.18619430385305        2.12203598121758
C            5.58728931207867       -8.37149614812319        2.53697868145479
C            5.83318595718083       -9.63236188988162        3.02063247907935
C            4.77249400084127      -10.47756457782598        3.31006817015264
N            3.86128012603825      -11.16451453055963        3.54007181888478
C            7.20270642345849      -10.12608780016916        3.24718173715853
O            8.18010422471651       -9.43603406194122        3.00265463845733
O            7.30414648736085      -11.40190030017821        3.74690905400030
C            8.64230613307752      -11.75579003321597        3.92013986814808
C            4.30353126078437       -7.77107014862557        2.27390190634307
C            2.95959570100445       -8.23270537671364        2.40757792125181
C            2.01628849365235       -7.31764763237032        2.02679611169525
C            0.57466355196245       -7.50903809997571        2.05216093779647
C           -0.00690937575792       -8.59922003095767        2.71466468330609
C           -1.37099540337974       -8.78017802443160        2.74073274861979
C           -2.18560449261311       -7.86233584173797        2.09125916210463
C           -1.62450634151561       -6.77103917886620        1.42318465891029
C           -0.26008082969080       -6.59193357566672        1.40652701288232
C           -2.73951627500458       -5.93626793033323        0.78454962171264
C           -2.75048501027266       -4.51205758623119        1.35770452571397
C           -2.59224216809610       -5.91575277478343       -0.74374349045928
C           -4.00322325657509       -6.69968273136467        1.19638673125287
C           -5.33081977187713       -6.43988897786458        0.92417671371530
C           -6.29718949466906       -7.29895610097446        1.41461227395658
C           -5.94341821325112       -8.40643757490516        2.16785720402809
C           -4.61914592451525       -8.67548591312519        2.44430267352422
C           -3.64470947546331       -7.81642528452047        1.95535158998824
S            2.78598241673958       -5.83277317187746        1.48446226571659
C            4.37589677630351       -6.46260078959227        1.77924538318230
C            7.25979524307630       -4.14162941934726        1.01851588889050
S            8.86376241263108       -4.75452075299526        1.27279904560480
C            9.60462910138168       -3.24103317165628        0.76955358941577
C           11.04251246058321       -3.02490356952388        0.73322195984852
C           11.58489741822476       -1.74530308455552        0.54846664835294
C           12.94512931027600       -1.53863746669333        0.51683998683187
C           13.79590433420763       -2.62544467500869        0.66727644138998
C           13.27465977001271       -3.90894588338711        0.84927574530311
C           11.91330555411134       -4.10804216498572        0.88625723556031
C           14.42554751121925       -4.91360992430217        0.96944680799155
C           14.39636548504341       -5.61563885570926        2.33443737205461
C           14.37568016518926       -5.93345306192473       -0.17740440953657
C           15.66294377556296       -4.01780924628232        0.84349947601186
C           17.00437181356033       -4.33981543480843        0.87477017224659
C           17.94014723619842       -3.33216581454760        0.72842995948497
C           17.54259521357985       -2.01697611162506        0.55160322814572
C           16.20428389304914       -1.68492209858010        0.51860993629843
C           15.26044326996362       -2.69180055483669        0.66643748697182
C            8.64251633687413       -2.32978348042473        0.42968074500115
C            7.30806930999906       -2.82054465026799        0.55378345506361
H            2.82872182826133        2.17057467855275       -1.31771498415280
H            2.38897940748969        1.04081689924037       -0.00439754793416
H            2.44370013310611        0.46603315760448       -1.69333499070325
H            8.69568267277170      -12.77043580357807        4.32064597274434
H            9.11193333273790      -11.05779559098879        4.61687765384527
H            9.15399609526366      -11.71075774481832        2.95615448815528
H            2.72644716597273       -9.21925198377521        2.76560692531835
H            0.62764972399269       -9.30300149689517        3.22253563442738
H           -1.81023447475193       -9.61731933905042        3.25348653931998
H            0.16643398830038       -5.75134144756538        0.89202901970536
H           -1.82552659510848       -3.98944873438664        1.11849495355992
H           -2.85411529287933       -4.53720126607684        2.44153657261011
H           -3.58042648740481       -3.93581586014062        0.95153279677677
H           -1.66378893296775       -5.42901466514899       -1.03851801388630
H           -3.41907393332487       -5.37982440177896       -1.20731186959048
H           -2.58253650161070       -6.93029868914807       -1.13980052457577
H           -5.60025093941733       -5.57963777674589        0.33721818117057
H           -7.33670439894182       -7.10437691327376        1.20820575640027
H           -6.71029254577817       -9.06460690211122        2.54186094566055
H           -4.33570743359796       -9.53308396528789        3.02819062854900
H           10.92224219833987       -0.90570209285038        0.43966681303151
H           13.35392260257849       -0.55369302351702        0.37748827131672
H           11.51715323444013       -5.09627397874328        1.02667730851422
H           13.48717526605915       -6.20378161065563        2.44981531307832
H           14.43108006699229       -4.88472256843830        3.14102188887129
H           15.24905070523916       -6.28364527666808        2.44633538233441
H           13.46556925057880       -6.52936594484205       -0.12875494421694
H           15.22767059975519       -6.61019836020419       -0.13372190728180
H           14.39616042978057       -5.42578873664447       -1.14078759688276
H           17.30810443144573       -5.36274446813162        1.01080011072609
H           18.99008666258054       -3.57323328185636        0.75185332150195
H           18.28608930639695       -1.24513875131989        0.43908001263677
H           15.88677344019416       -0.66646893202339        0.38199915544375
H            8.85617865721216       -1.33597408686125        0.07973020551924
