60
 energy: -11.487530151545 gnorm: 0.000674434320 xtb: 6.5.0 (97a52f5)
C            2.01937443585395       -2.00990527987039       -0.71788089368930
O            3.37761070029506       -1.71600848569387       -0.83404333196972
C            3.55285616939809       -0.40436200438801       -1.18003222563282
O            2.63615207035894        0.38130582766400       -1.35645846863206
C            4.93670645395912        0.03093289336397       -1.33480187818038
C            5.25163322201159        1.28983260810437       -1.66749875042592
C            6.59098532213730        1.77750508550371       -1.82993580795479
C            6.94037640269523        3.09330820649613       -2.16709302251506
C            8.33715241092258        3.16948949307200       -2.21761512230710
C            9.18176100198807        4.25898334621589       -2.49873973339481
C            8.64782235665089        5.60882351761926       -2.80158982139046
C            8.10357178646162        6.40681048181301       -1.77544387781598
C            8.05149687481846        5.91954617203905       -0.36845548899713
C            7.59880861962745        7.65547333712791       -2.08350363901718
C            7.62584289057633        8.15430990085216       -3.37596668075872
C            7.10673080439371        9.51598202466177       -3.68159769015170
C            8.18281563208127        7.37283546954264       -4.37504600119889
C            8.68179556493803        6.11035973128510       -4.11817641859277
C            9.26273629243255        5.30961451059809       -5.23220834536218
C           10.56340118109435        3.99597965477759       -2.46554274199348
C           11.65148975088814        4.85401145661525       -2.66279033767441
C           12.82667276020256        4.10439079936694       -2.50382161874456
C           14.17675775376557        4.57896114870353       -2.60500714056712
C           14.51618600304514        5.84570400622441       -2.87873687016378
C           15.90778056292119        6.27518424174712       -2.96064719302722
O           16.81280697281844        5.47590603497847       -2.78556102883680
O           16.10409873577422        7.60028442525565       -3.23827797746057
C           17.46738724944228        7.88967704147903       -3.28545617669865
C           12.44695447993293        2.76579754715037       -2.20314090115045
N           11.12176253716551        2.73796905728536       -2.18583331753338
B           10.27972207495619        1.49193719994679       -1.87945608517083
F           10.59766300385531        1.03078466747832       -0.61205926320043
F           10.52118538096393        0.53224604598307       -2.84945698958388
N            8.79465062043567        1.87664726375304       -1.91479471532418
C            7.79724393886201        1.03570237240602       -1.67991035879618
H            1.90401978900941       -3.06115599943533       -0.44506020600185
H            1.52825875130173       -1.81758773907224       -1.67459881028847
H            1.58001625013290       -1.37468139322997        0.05473792930883
H            5.70754398467595       -0.69757566720152       -1.17144445004610
H            4.44588270014543        1.98588621352609       -1.82109304426649
H            6.25790021958964        3.90301157816329       -2.35473020251860
H            8.80802290909889        5.15647992346451       -0.18481235332577
H            7.07571631297888        5.48838097430986       -0.14400453907690
H            8.23036192833525        6.73388479530295        0.33412168927718
H            7.17921611897739        8.25841790546975       -1.29811209948471
H            6.39436172829592        9.84614445226733       -2.92512693294847
H            6.59672755744012        9.53226808440379       -4.64518660607728
H            7.92111307872486       10.24005985128593       -3.71703959513856
H            8.22393225928536        7.75853729321728       -5.37811106981896
H            8.69473221697216        5.45000630506352       -6.15183784710539
H            9.25456426450329        4.24454520806977       -5.00196050604518
H           10.29398352744990        5.60533213644769       -5.42423566564971
H           11.58531574928512        5.90369839944273       -2.88543764543936
H           14.96858234547515        3.86842882294432       -2.44562559789442
H           13.75859829827693        6.58768077435513       -3.04302909397644
H           17.59871828298580        8.95195493701270       -3.50298820636549
H           17.93449521504992        7.28886248622238       -4.06923591561580
H           17.91836434258315        7.64942053913597       -2.31984722779586
H           13.08951864769559        1.92366910720400       -2.01026758032693
H            7.91415150400142       -0.00339878752945       -1.42496450946248
