50
 energy: -9.629873492359 gnorm: 0.000904962983 xtb: 6.5.0 (97a52f5)
C            1.64907578468843        0.81701590139327       -1.47363067852885
O            3.02166901293277        0.92676968000166       -1.24933513241924
C            3.28309113172110        0.96386673435038        0.09308944021092
O            2.42281853321992        0.90765996193902        0.95806669896542
C            4.69114018227298        1.07722720765666        0.45643021536849
C            5.10095294696924        1.10885977966531        1.73287611360517
C            6.47042069565576        1.21947300741305        2.13842056837817
C            6.93104054677129        1.25329489520260        3.46940793836768
C            8.32180302224648        1.36552753576888        3.44087433502096
C            9.25792396928777        1.44097502638135        4.49511114180818
C            8.84181041426448        1.39956365347322        5.91816816879984
C            8.41991957991233        0.18979300685544        6.50410450344402
C            8.36776702847661       -1.06928760353010        5.70961215313917
C            8.03238901401163        0.17775801324297        7.83061646078781
C            8.06376309968914        1.32390850652307        8.60943340318330
C            7.66825716165890        1.29075510947449       10.04466604112426
C            8.49134341996156        2.50668774426079        8.02899632870058
C            8.86797509039160        2.57053185251042        6.70078995281821
C            9.31194701858843        3.86695896639832        6.11701589687194
C           10.60213560611426        1.55803377982456        4.11862235196597
C           11.77634714599491        1.63411102953566        4.90566244326994
C           12.85505290472307        1.73274645981523        4.04637561270602
C           12.38053485918887        1.71606689803751        2.72455024626786
N           11.04960734559315        1.61061289791508        2.79329045153197
B           10.11234283538126        1.54908041555739        1.57861384985917
F           10.43775427357992        0.44313695422271        0.80821210150513
F           10.22527219571821        2.72708566079935        0.85683686597285
N            8.66901593889118        1.40454602250798        2.07911891637151
C            7.60529474037354        1.31839598602456        1.28897451702390
H            1.46400977971128        0.79278564295507       -2.55007048466880
H            1.14149031525101        1.67677266638422       -1.02989930654453
H            1.28225986551269       -0.10390368571750       -1.01442325925451
H            5.40451999364262        1.13521455678847       -0.34307696610695
H            4.35445850750316        1.04817669233802        2.50495763813811
H            6.32047569022937        1.20619743442268        4.35347078487187
H            9.09620965624646       -1.05522928716022        4.89870526004429
H            7.37894537646572       -1.21080212560574        5.27287741524779
H            8.58808766336899       -1.93590143808317        6.33345086343622
H            7.70320931018984       -0.74634434057374        8.27118641841481
H            7.21392168290507        0.33582779057960       10.30978126293366
H            6.94456189394863        2.07568816235862       10.26637000845422
H            8.53618369180583        1.43891556375361       10.68789980071240
H            8.52628749660080        3.39866954460915        8.62875524287148
H            8.89115360187832        4.71103534261714        6.66466479616684
H            8.99450645552221        3.95785105580174        5.07762689390783
H           10.39839007343592        3.95427290715283        6.14761228069048
H           11.81303901345070        1.61248120326294        5.98147355572833
H           13.88965379768606        1.80963685709246        4.34048932361049
H           12.95004751076039        1.77816451418780        1.81172205248935
H            7.63346312559858        1.33219585962081        0.21333551273833
