68
 energy: -10.309375160289 gnorm: 0.002545521246 xtb: 6.5.0 (97a52f5)
C            2.37031751722030       -3.12722068437384       -0.69336805625089
O            3.70141787623049       -2.71140955091163       -0.69393914677651
C            3.77989489664746       -1.36359002037800       -0.46393910849872
O            2.80785642753129       -0.64489626492260       -0.30090414293884
C            5.12715903941772       -0.80581870105062       -0.41555378853514
C            5.35393150819122        0.49238415113819       -0.16681206427787
C            6.65353880527419        1.06601900401763       -0.09896543043625
C            6.87684897561242        2.37247640792555        0.16995827597669
C            8.18297224798164        2.96795657345112        0.26612427181882
N            8.44983685316948        4.27252178079972        0.56449834261385
C            9.79167906811430        4.44761609372491        0.60724484904334
C           10.56512859509260        5.61695005940803        0.83475868828952
C           12.04051747824516        5.49201334485522        0.90410863252688
C           12.77424315881929        4.96899264664667       -0.18227868503005
C           12.10090455623841        4.51764275967429       -1.39410605953321
C           14.11853328374898        4.87648955200997       -0.07671487502308
C           14.80102529260377        5.25741579120175        1.03052806512653
C           16.25404729595942        5.13871738112672        1.09522318026372
C           14.09285759174383        5.73539334296876        2.08294983269280
C           12.74716131119806        5.86068285587504        2.07147678512162
C           12.06314678820525        6.34329105051781        3.26653224893623
C            9.94233010122028        6.88507498495320        0.98059685955490
C           10.68062349814377        8.04470972764182        1.03656413841182
C           10.13128443737402        9.23771970605125        1.26200301281495
C            8.85272447478982        9.59549772362683        1.52650360528762
C            8.41053215852723       10.78565054943255        1.79449696997795
C            9.14028820526382       11.93155015010106        1.86728074393432
C            8.69492265983784       13.09480469967659        2.19246873531990
C            9.46536583969257       14.22054022826886        2.25122081182791
C            9.10399862766570       15.34951718933118        2.57050463488018
O           -1.34919059223271        9.16092577480687        0.72274429701125
O            6.80318172255520       16.28837376444014        1.48936002617974
C            1.93514697915372       15.54937464564492        2.43276693803449
N            8.58012329521051        7.02301945184269        1.03221273342422
B            7.74205992949493        6.75462018389166        2.16400000224724
F            6.61840165152164        6.04804929769249        2.00946092415970
F            8.26535957737020        6.89473965533188        3.38597317404839
C           10.31862437051487        3.20674213570284        0.30704122238455
C            9.42664387687891        2.28922190675300        0.09114912270587
H            2.33267247317968       -4.20345269285306       -0.87673754000199
H            1.82840740720672       -2.59702137919616       -1.47991478462768
H            1.92415731511053       -2.90031868291763        0.27775947475254
H            5.95022461488832       -1.47543846366933       -0.57993316688836
H            4.50377537289903        1.13200475247984       -0.00334162922690
H            7.49613323677784        0.41859923436513       -0.26257059598588
H            6.03144308643800        3.01502262492115        0.34011736514525
H           10.25922440220213        8.89816872855778       -5.27104254569102
H           11.35658304955180        3.77712756924986       -1.17345283852585
H           12.78280313676340        4.14021809529597       -2.12923499036133
H           18.92725432403522        0.36144461623714       -2.57342505473968
H           22.30239524864433        3.58154351432731       -2.53504177066853
H           16.57067277187508        4.40535973814356        1.80953248878682
H           16.73179119045818        6.07655123842409        1.29633804044997
H           18.21863542495604        8.38383285589659        7.28165636657528
H           14.11658128372597        7.68211094231490        8.71389908725115
H           11.09125793503443        5.91034424617198        3.39625562698900
H           11.99723057002741        7.41206632391382        3.29979697244203
H           14.89940223513659        9.03226636674963       -1.88894571765919
H           13.68615041122935       15.79135197516252        1.89077714109203
H            6.59608582250072        5.55474522964045        4.13201972153996
H           12.94343291436267       16.41698876158029        6.53706319515060
H            0.10220198985488       10.32084517006416        1.00488117156193
H            8.68439478859251       20.82675098006959        4.33349632629124
H            6.37183217214642       17.19170565600947        1.49402217595582
H            9.56749354103026       16.53505913364019        3.62852578712226
H            6.27972572374111       15.64697660510233        0.92601137227682
H           11.56040453639398        2.70088999585908        1.24184489506910
H            9.63150364360467        1.26084751599136       -0.15871634098814
