34
 energy: -6.243014578419 gnorm: 0.000710485880 xtb: 6.5.0 (97a52f5)
C            1.11513213892885        0.22104313459643        0.02877025544211
O            2.47719851602909        0.26042974007516       -0.27394851134865
C            3.14632644308016        1.05302830410990        0.62746170202602
O            2.60824156908042        1.63258250989827        1.55595043257336
C            4.58535323581978        1.17239160916761        0.41342396044810
C            5.36923862219934        1.90789654318127        1.21265957629398
C            6.77928964274186        2.04142132577891        1.03180720911154
C            7.55926904971844        2.77511648350488        1.84969745838707
C            8.98901215543240        2.94524707476123        1.72309765658174
C            9.68675168974650        3.68170863380660        2.68807501530811
C           11.04323539656402        3.85849804179086        2.60395321844191
C           11.78012318435092        3.31141662305062        1.54588184542434
N           13.16703189988483        3.49414594337823        1.45557394776000
C           13.90079706764565        4.30567559781535        2.42735679985107
C           13.95935282087120        2.84994168430603        0.40736003056713
C           11.08159596273124        2.57664047179626        0.57925402390850
C            9.72508580723225        2.39797817731103        0.66496344973139
H            0.60402765826377       -0.41967166163046       -0.69284770621375
H            0.70344178907271        1.23136640399631       -0.02117551435137
H            0.97928313084445       -0.17925247678966        1.03577301195316
H            5.01069767856820        0.64249915673399       -0.41765701372593
H            4.91061768374196        2.42457104862542        2.03763204790531
H            7.22209000689694        1.51906606354508        0.20365529018895
H            7.08575733115755        3.27561180751529        2.67598479220942
H            9.14020026701603        4.11026673872676        3.51060467277325
H           11.55244937911092        4.42062325117201        3.36568460945228
H           13.44240518795691        5.28802896569271        2.51664749086126
H           14.93456089674868        4.44560754732130        2.11945257056754
H           13.89405446183349        3.81738999555150        3.39939769438931
H           13.69198466608392        3.25756535205561       -0.56538070601347
H           13.77729418524516        1.77732727466890        0.40830396160559
H           15.02331800179822        3.01025230267097        0.56560464880680
H           11.62040435339460        2.15062877080804       -0.24796241689558
H            9.22003812020766        1.83157756100864       -0.09653550402088
