39
 energy: -7.298724216352 gnorm: 0.000953533193 xtb: 6.5.0 (97a52f5)
C            0.56749562152615        0.62942684167423        0.89025924720459
O            1.91358794018338        0.93259819343037        0.67996977723020
C            2.71256867158000        0.15297054659222        1.48255645740180
O            2.28704636851868       -0.68420888968016        2.26434677536900
C            4.13821046277761        0.37823151520574        1.34948292408783
C            5.04541632253246       -0.31798619953164        2.06093120758310
C            6.44039882337017       -0.13142167671222        1.94773307148046
S            7.20119267316857        1.04475036775424        0.89576934877975
C            8.81135384420697        0.58339734806769        1.38128695375292
C           10.01591048651894        1.19774852774025        0.85145351344620
C            9.92435156977216        2.25764577808266       -0.05412874317637
C           11.04680972631900        2.85169347943136       -0.57206931514252
C           12.32481405542146        2.41254704647452       -0.21136051333554
N           13.47890473572475        3.01797842999044       -0.74136169424022
C           13.40798598543147        4.23533015435873       -1.54804763763166
C           14.80783970911042        2.44152602792032       -0.54230856279687
C           12.41709849344490        1.34962158023610        0.69352547718909
C           11.29301134140736        0.75806317852157        1.21291128822739
C            8.74140066147807       -0.41887064835574        2.30869451689215
C            7.42079234460503       -0.83615306228390        2.63965863431582
N            7.15889152185274       -1.84502580814550        3.56130836453613
H           -0.04714022234908        1.24681644713072        0.23179628262205
H            0.30922444940979        0.83252964583539        1.93168060963735
H            0.39596480120767       -0.42660511144606        0.66990681764617
H            4.46442438945142        1.12458213598512        0.65050819998148
H            4.68208410019186       -1.05641590634015        2.75252876923835
H            8.94855487159419        2.60452082061533       -0.34420842234097
H           10.94474979280815        3.65749609193614       -1.27613837273374
H           13.02066871495581        4.00384357159184       -2.53803626719348
H           14.39187284888262        4.68672626736330       -1.65609911397893
H           12.75715680802743        4.96425878464087       -1.06995016594409
H           14.78910761173551        1.37594777582609       -0.75953867818289
H           15.12919144576838        2.59191187022560        0.48584192054438
H           15.53577168220367        2.90570378708905       -1.20421282916361
H           13.38768576714783        0.99939290740684        0.99501752066279
H           11.39400860864437       -0.05758880689310        1.90547952389908
H            9.60706236659039       -0.86604998463061        2.76586518740959
H            7.89509239015612       -2.46002274090279        3.85751515953103
H            6.27076821460419       -2.31333028619078        3.57824276719087
