66
 energy: -14.720180535775 gnorm: 0.000674495513 xtb: 6.5.0 (97a52f5)
C            4.24761187096345       -0.50976221807368       -0.05314206927283
C            4.19544793696407        0.83132616190352       -0.03232113900454
C            2.81267771281684        1.18868519783852        0.00016031229831
N            2.04383182910072        0.07532174178948        0.00486166058132
C            2.89733076265304       -0.97452614797092       -0.02221564361916
C            2.57974060257562       -2.36085876627014       -0.04384792072487
C            3.67379819928620       -3.32076363272817       -0.17351840382178
C            3.62553671699277       -4.55111803254142       -0.83875346845504
C            4.87472270717466       -5.12756249890929       -0.72951808977214
C            5.65879731409582       -4.24908864375467       -0.01178607245656
O            4.95089139983297       -3.14515820553538        0.32625769345897
C            1.24184575452002       -2.81857358200198        0.06906671849272
C            0.84489283379170       -4.16800380532026        0.22270019776192
C           -0.51567332555944       -4.20887202885556        0.26877084152657
C           -1.00576628622599       -2.88837398604527        0.17024292174376
N            0.09078117161808       -2.05790705574930        0.07081789244010
C           -2.37878464137928       -2.54149075866735        0.13178353940857
C           -3.35321775531950       -3.62711138947693        0.05598025423207
C           -4.58085181499157       -3.59733252972713       -0.61542153763544
C           -5.16376554584517       -4.83879463562592       -0.46199095289333
C           -4.29185166370537       -5.59967400410588        0.28818573976103
O           -3.18583237747215       -4.88486108324035        0.60478240733668
C           -2.80861407172551       -1.18340373698809        0.16108021516070
N           -2.03801293703748       -0.07702141950291        0.04586016243935
C           -2.88014807694844        0.98004878167260        0.10422767177923
C           -2.56920273079440        2.35906369355285       -0.06303883496885
C           -3.67683860299805        3.30824161383841       -0.17657462428963
C           -3.71262664151458        4.45060575995345       -0.98441516121918
C           -4.94458856789482        5.04523626676004       -0.80174872358651
C           -5.63593715237128        4.26409705714939        0.10019925211742
O           -4.88734839143462        3.20279368194116        0.48362375269741
C           -1.22900143823925        2.82307815220094       -0.09194779972779
C           -0.83203539866042        4.17972597092743       -0.12851789835085
C            0.52872226333916        4.23030594568063       -0.09215681689503
C            1.02158714574727        2.90814505769425       -0.00078582552710
N           -0.07489127793319        2.07126905135019       -0.01461107132966
C            2.39180514525630        2.54618655086409        0.06348772536328
C            3.41755516795580        3.58194643000719        0.17995182062102
C            3.31387691766468        4.77682935011330        0.90119780265216
C            4.51009469677332        5.44972843059980        0.75640733621041
C            5.31788959782454        4.66328228818042       -0.03775199030277
O            4.67615435194284        3.52390790072722       -0.38969266367786
C           -4.22128929828104        0.52878321543617        0.29674474607121
C           -4.17772759601857       -0.81216764289948        0.34624467222658
H            5.13228293931736       -1.12292858368770       -0.07140674454982
H            5.02838418684033        1.51309403639282       -0.04892531518564
H            2.78970140330212       -4.94741825284016       -1.38994264327765
H            5.18232260433401       -6.07637416867956       -1.13741713199755
H            6.69977550100246       -4.40131349574119        0.24816383684458
H            1.49833709343283       -5.01645958692190        0.33064189002357
H           -1.12415349795711       -5.08956613066202        0.38084004879408
H            0.05407530091025       -1.03617509501746       -0.02005826693787
H           -4.96962340521706       -2.78097423722514       -1.20030925467275
H           -6.11107100975950       -5.15771619676823       -0.86472255721703
H           -4.44885323780763       -6.63065568705137        0.58279389572829
H           -2.95001018982804        4.76841572838309       -1.67501819979847
H           -5.30281334185707        5.94156819238451       -1.28088333230786
H           -6.64170823221809        4.45319227113963        0.45659442307072
H           -1.48497481502862        5.03506155231489       -0.13836142718331
H            1.12073474526844        5.12675235018656       -0.15762424689814
H           -0.03855585616772        1.04684219567870        0.04077174879154
H            2.48146315524669        5.08434902035022        1.51119475099060
H            4.76762488783815        6.40174779068187        1.19067453944225
H            6.33027340900517        4.90394854874836       -0.34028742806792
H           -5.09118058326271        1.15335164723760        0.40645626106182
H           -5.00933756392294       -1.46788439508986        0.54176652448973
