52
 energy: -9.993736667768 gnorm: 0.000364604954 xtb: 6.5.0 (97a52f5)
C            1.19800000388019       -0.39696715922274       -0.77564545329608
O            2.56191618132689       -0.68571101647976       -0.84042649632650
C            3.28992198494702        0.46909016826909       -1.00441077898213
O            2.79347662189715        1.58308818283392       -1.08050361448101
C            4.72616106287800        0.29374138331767       -1.08681657903122
C            5.57082940613116        1.33022940902183       -1.24940629022600
C            6.97426078230353        1.21495950140244       -1.34162405837644
S            8.04142499839502        2.58507970714745       -1.55518377087526
C            9.47405907620285        1.59593855083273       -1.59687530480541
C           10.78013931227702        2.14307605342541       -1.79734008868705
C           11.94700455545614        1.45455383940793       -2.02050853608567
C           13.08424337257084        2.27114865536099       -2.17453490663661
C           12.82537564227106        3.61590501671591       -2.07848011738323
N           13.76929731669467        4.63344925827560       -2.18650038051555
C           15.17501174617657        4.34661790658399       -2.46394236245118
C           13.39035551954483        6.03802839599177       -2.06624210974776
S           11.12399756197287        3.86509893899292       -1.79832167146318
C            9.13148816955574        0.26184660782814       -1.41871691524816
C           10.09800236100492       -0.84897766674013       -1.33003668027607
C           10.25820838788727       -1.87995981182221       -2.23161046011508
N           11.27543489898768       -2.70629791956746       -1.80363490500621
C           11.76203570413155       -3.89653366960310       -2.49435320344305
C           11.79018191938986       -2.20790836166069       -0.60649396575608
C           12.82951900952137       -2.64059632600827        0.22510525652972
C           13.11652059225751       -1.91133786849530        1.34838524335653
C           12.38960931329823       -0.75424368695807        1.66873609422069
C           11.36934389947132       -0.31671780065039        0.86780800577249
C           11.06194163811172       -1.04955783317566       -0.28799976559864
C            7.71700629432291        0.04391999090769       -1.27918034762173
O            7.15738254467393       -1.20620646554398       -1.09205267430715
H            0.63925881525435       -1.32631757092709       -0.64682097798038
H            0.88767693898173        0.09294520703562       -1.70111393743770
H            1.00811396441679        0.26666634237703        0.07068476710724
H            5.11333393909675       -0.70491228107510       -1.01637341902076
H            5.14928555660933        2.31855774142053       -1.31660825283181
H           11.99071559845446        0.38017318556553       -2.07794871715833
H           14.07291386328935        1.87621539071182       -2.34553831102400
H           15.26415510964022        3.78100448391048       -3.38908694274325
H           15.60387550676164        3.76691832136578       -1.64924269846199
H           15.74156487690976        5.26962645146375       -2.56873136889209
H           12.37852235517092        6.12571936017292       -1.67682224745499
H           13.43218313208436        6.51879154329557       -3.04144911609656
H           14.06626877156310        6.55269166548404       -1.38622355220713
H            9.69601236399919       -2.01659739296768       -3.13887180746747
H           11.14129285900167       -4.10883816879569       -3.36221322951722
H           11.73209311912738       -4.75325430345211       -1.82449029920313
H           12.78664229799885       -3.74029041376067       -2.82493630258002
H           13.38469574730664       -3.52597128034944       -0.02790999212913
H           13.91532973302881       -2.22868562289154        1.99806981484345
H           12.64210819330069       -0.20088305351943        2.55806867785515
H           10.81317390120791        0.57417135839177        1.09921515329501
H            7.86779347927006       -1.87667694385432       -1.06026040401469
