58
 energy: -10.460264423015 gnorm: 0.000581157206 xtb: 6.5.0 (97a52f5)
C            0.88672224710910        0.29752156573377       -0.72155672612856
O            2.24316305085631        0.41310768755808       -0.41691971809050
C            2.97830975570890        0.46593780620350       -1.56381098108484
O            2.53027435955997        0.40229812543235       -2.68706870718356
C            4.47803327963601        0.58270675121961       -1.37732556215030
C            5.11388188607859       -0.80460231305946       -1.30927388153972
C            4.64379317488394       -1.62213389810243       -0.10852179021463
C            5.27771543803368       -3.01054854509784       -0.04471029338697
C            4.81363118052555       -3.82455918897518        1.15596590735380
N            5.46637777043636       -5.11611314917127        1.25190579549056
C            5.63104245552131       -5.74528732944171        2.46705704368627
O            5.27799409934023       -5.23698696119075        3.51350623248092
C            6.27023082636691       -7.10211322284909        2.47657188528808
C            5.34308401385723       -8.16505459419647        3.04192916004781
N            5.95229629358414       -9.49071264191243        3.09524086590214
C            5.36183747560754      -10.63447377298544        3.61869187286738
C            4.07171705123909      -10.58749720847394        4.12025530581614
C            3.45666827689884      -11.71141688926140        4.65697155795123
C            4.11441282392409      -12.90664317252562        4.70555323254233
C            5.42999922150841      -13.02248004559561        4.21041810703855
C            6.12435745512104      -14.25170843159946        4.25393243133077
C            7.39435023682871      -14.35117604867754        3.77130208714351
C            8.02722312001753      -13.23336202686285        3.22510294803796
C            7.38311058614511      -12.03093751475100        3.16977002111876
C            6.06968000848158      -11.88421939949252        3.65784939529301
N            5.01840209785673        1.38306478157379       -2.47838922002144
C            6.31175236328055        1.86416150867206       -2.57436512406010
C            7.22108629987561        1.81348813741429       -1.39261831795634
O            6.72711157660474        2.32414872756034       -3.62237640811225
H            0.31290969155409        0.26416748239575        0.20718783734533
H            0.72045302398234       -0.61941178388819       -1.29170144224428
H            0.57662911841813        1.15949868980810       -1.31684149486615
H            4.65428225697263        1.12341444522533       -0.43845021220037
H            6.20423822790315       -0.71328504325962       -1.29121471678365
H            4.88169470492956       -1.33751443895382       -2.23697863299169
H            3.55179500081420       -1.71483603211119       -0.13292957750226
H            4.86192102347782       -1.07453029357427        0.81568160308676
H            6.36931209243067       -2.91732485312435       -0.01779388278461
H            5.05903492769318       -3.56060913782584       -0.96694330206383
H            3.72988789642476       -3.98077748267507        1.12547266262885
H            5.01537053591955       -3.28052393887926        2.08517785940347
H            5.70067926579994       -5.57563699603145        0.37038739651062
H            7.18664629334521       -7.05445937348485        3.07231814332029
H            6.58098984318860       -7.37487368867215        1.46381097437299
H            4.42878284114855       -8.22355889365925        2.44223895525635
H            5.03359008977555       -7.88271810588412        4.05386504804991
H            6.89386533276064       -9.50190842463415        2.71358273779480
H            3.53343221988298       -9.65729678243544        4.09154714310840
H            2.45120912922280      -11.63762487567647        5.03788326477305
H            3.63443085332656      -13.77486251156498        5.12271033848563
H            5.63472610357297      -15.11264385254924        4.67516884961446
H            7.91438257230444      -15.29421130008972        3.80932554313319
H            9.03173067014069      -13.32355908787545        2.84518369820397
H            7.89009395343138      -11.18445701126353        2.74576146154548
H            4.43985382475115        1.32928143402247       -3.31614079669733
H            6.67182836740074        1.73153689931381       -0.45712053753412
H            7.82108865128255        2.72113066422129       -1.34696646678793
H            7.90381306328264        0.96866555594539       -1.46992957358400
