65
 energy: -12.766122058003 gnorm: 0.000625370928 xtb: 6.5.0 (97a52f5)
C            1.04981486678186        1.05022793856686       -0.00658533734496
O            2.43953400222602        1.04381522708388        0.11924358550597
C            3.01655034968229        0.63717152553342       -1.04787509627739
O            2.41747331688450        0.31490940110146       -2.04912034135507
C            4.53022995079550        0.58645983454240       -1.04677506849490
C            5.05322301245362       -0.84916214372536       -1.15728643339643
C            4.96371828440341       -1.68042063810564        0.09063240109328
C            5.87292782865421       -2.74725170781133        0.25745579933344
C            5.85249827477131       -3.55728217111406        1.35804355310686
C            4.89509610110669       -3.32542754684411        2.35233608115137
O            4.60896680658197       -3.92023893035006        3.54873387587001
C            3.53721671277171       -3.21489404716555        4.06369164142267
C            2.90834665549315       -3.51951968083261        5.34824996005732
C            3.60169644712502       -4.29543386796194        6.31572693597432
C            4.91147299615782       -4.79047905624272        6.10347558017862
C            5.56672302221763       -5.51567796941490        7.04801726175406
C            4.95470911836197       -5.79944267096255        8.27656526268822
C            3.70050485447272       -5.34904771999253        8.53330773569371
C            2.98864872206814       -4.58517780836232        7.57096885968146
C            1.70751474006200       -4.11551109839761        7.83920054011125
C            1.00331574210900       -3.36091143914688        6.90718950388327
C           -0.31001434587024       -2.89890814790480        7.18718678263826
C           -1.00301103422488       -2.17169525108720        6.27451274410713
C           -0.42527480560149       -1.86284619599640        5.03544448034232
C            0.83137244397819       -2.28586691150853        4.73855356732558
C            1.60105341553641       -3.04913864551856        5.64990287108960
N            3.14592764978927       -2.22702191218257        3.26468354749094
C            3.96639929848035       -2.26575347761168        2.19406031531584
C            4.01114630929633       -1.45225768712643        1.05318409424534
N            5.04337135534900        1.41570257438701       -2.12425896012829
C            6.37005646555203        1.81209826402822       -2.15728011811408
O            7.09503883579087        1.60745572435061       -1.19807656041617
O            6.76666763637412        2.41528233163368       -3.32397879111103
C            8.16423384828624        2.81665022781232       -3.36506658079954
C            8.45069081053867        3.84517639923779       -2.26364595211347
C            9.07144677790749        1.58879261891586       -3.21449830366294
C            8.41168972837660        3.46249763037007       -4.73677617702865
H            0.60519048722737        1.35951984827466        0.94197930541266
H            0.70509705597481        0.04629229166731       -0.26441945347922
H            0.76211040431302        1.74944009786377       -0.79487477305801
H            4.89323736351623        1.03240336771520       -0.11031523259136
H            6.10224816018065       -0.80169761147640       -1.46673363365605
H            4.52312071362072       -1.35388900869136       -1.97038712105853
H            6.60403930434791       -2.92196764868307       -0.51316837479464
H            6.55207371933839       -4.36460717654456        1.47801147877290
H            5.39436030516380       -4.58717559535343        5.16683810051411
H            6.56254889988158       -5.87920004026234        6.85438122261140
H            5.48451339288669       -6.37748439786329        9.01567627078740
H            3.22906599329560       -5.56506735711644        9.47640448325716
H            1.25174123766905       -4.34115325670073        8.78605304155682
H           -0.75244536975680       -3.13838171577080        8.13863478368643
H           -1.99964974284854       -1.82889231449596        6.49898324421054
H           -0.98362615555054       -1.28323773852565        4.31878827243175
H            1.25853568830260       -2.03184189981659        3.78888565080692
H            3.30529800341555       -0.65017857740357        0.95599724357586
H            4.47769876240686        1.42741540190316       -2.96739380345490
H            8.28102430184490        3.40816841906866       -1.28166506636347
H            7.79050837515384        4.70435688811842       -2.36599645305881
H            9.48104391499207        4.19427570643926       -2.30929083813872
H            8.91424433660117        1.11500256086120       -2.24765972873724
H           10.12197952894211        1.86411335961712       -3.29323578665401
H            8.84826931038796        0.85535161305535       -3.98701308675565
H            7.75949822747999        4.32307561976604       -4.87256193074830
H            8.19564919713101        2.75285716381966       -5.53314154673503
H            9.44448838937979        3.79214902835712       -4.83866952817335
