73
 energy: -14.606392444108 gnorm: 0.000564014865 xtb: 6.5.0 (97a52f5)
C            1.73577569320452        0.17810533796634        2.04421317038328
O            2.80965714713359       -0.31992299581534        1.30630757195766
C            3.91040252213530       -0.44348667692486        2.10189723499108
O            3.95938749188821       -0.16872636259262        3.27975105780172
C            5.15753473482619       -0.94807446469998        1.40761609322237
C            6.17109956297474        0.17591029767757        1.20979753875272
C            5.65728629882169        1.29244494188185        0.35545070688484
C            5.51452332389476        1.09981298600489       -1.03392443810828
C            5.03940799775410        2.08283396289347       -1.85543864427858
C            4.68937883974599        3.32106886001323       -1.30109283741140
O            4.22118636127267        4.49379992627388       -1.82829033831499
C            4.10152093176058        5.34275096102371       -0.74589923017439
C            3.64704067764356        6.72555240085732       -0.87126439561129
C            3.59800536206882        7.56510809741214        0.23748653707023
C            3.19648440550941        8.87195507807607        0.10720314614309
C            2.82913924853230        9.37989269921543       -1.13539042311140
N            2.42933189876191       10.75189765408207       -1.27494532882827
C            2.91799434414127       11.66399135314939       -2.23389781740401
C            3.86396540133175       11.50828978973501       -3.24662421435450
C            4.16509036991364       12.58616652584594       -4.04182792453145
C            3.54481519101322       13.82267898104608       -3.84472224071768
C            2.61946496452404       13.99737180760699       -2.84482183259243
C            2.30353272275641       12.91065447919184       -2.02816874055305
C            1.40869181769218       12.76802687821739       -0.90539613048600
C            0.55375951780160       13.66696692839961       -0.26623674819974
C           -0.19459155544863       13.22204062516729        0.79611719604801
C           -0.10906308388246       11.89670968518674        1.23059893663530
C            0.72946612681444       11.00189116622410        0.61317427993048
C            1.50417628552379       11.43851597770589       -0.46096428495994
C            2.87090559037807        8.53755501581877       -2.24254122481886
C            3.27522470516935        7.23137687064206       -2.11258824569190
N            4.44626189605737        4.79018918056814        0.40524124926520
C            4.82058177564791        3.52567437310261        0.09856876328016
C            5.30218629880655        2.49342886058499        0.91834680638039
N            5.73101908787990       -2.05683920688346        2.15049380722487
C            6.76258558021776       -2.81495542289689        1.61977411373727
O            7.07492299919290       -2.69303571396292        0.44688110879927
O            7.37654320466892       -3.65983554340403        2.51006013053714
C            8.49110925757931       -4.42184188303352        1.96886454600788
C            8.00842051133245       -5.33040869729932        0.83142723688004
C            9.59107770996769       -3.47127853560985        1.47888104022987
C            9.04460460023854       -5.28947125428545        3.10942666929086
H            0.86433660572720        0.27181054450073        1.39252156548904
H            1.99907110029706        1.15768312921169        2.44943526362003
H            1.51160379229843       -0.50894172324814        2.86321796554693
H            4.86037554406800       -1.34319459214880        0.42637464079664
H            7.08513275271071       -0.23294933595603        0.76698594884079
H            6.46070281080993        0.56150615354212        2.19161149949685
H            5.79209111330741        0.14598229708403       -1.44842736841882
H            4.93529584822065        1.93113807501698       -2.91458726251354
H            3.88916273247621        7.17537460265899        1.19693387037753
H            3.18182600313844        9.52565430141112        0.96134298416491
H            4.34897510551112       10.55898984786080       -3.38510846686537
H            4.89184229434397       12.47854481962985       -4.82994981956621
H            3.79991473065190       14.65136107416039       -4.48435876537725
H            2.14236336241721       14.94749791249668       -2.68271879043484
H            0.49074329440474       14.68441089330511       -0.60896438694339
H           -0.86009913732785       13.90303969913369        1.30040917168906
H           -0.71261268968783       11.57272370070910        2.06227185320669
H            0.78908558713372        9.97792846011681        0.93507825844617
H            2.57021372397250        8.92271639431144       -3.20086327308618
H            3.31346784536908        6.58081665821075       -2.96920899913629
H            5.38644480899165        2.65158473989957        1.97728504562725
H            5.59209595802748       -2.01057950547262        3.15522059928174
H            7.60737966381991       -4.73540875421292        0.01344872365543
H            7.21847629952191       -5.99126597576487        1.18318506589504
H            8.82207319877065       -5.94115751953927        0.44336510746572
H            9.22287223831220       -2.84934535016415        0.66555219637817
H           10.45817735566493       -4.02397656303084        1.12073269514433
H            9.91038914763736       -2.81337132953738        2.28492187342371
H            8.27269976809402       -5.95899013390701        3.48420282277289
H            9.37094652766680       -4.66226536159872        3.93687656441893
H            9.89014479633016       -5.88925210278379        2.77608951535401
