68
 energy: -13.000115678101 gnorm: 0.000601466546 xtb: 6.5.0 (97a52f5)
C            1.14670098549324        1.32756612376821       -0.59298896133294
O            2.53392408042393        1.22105472300116       -0.48816599233138
C            3.00083532630392        0.28645814905070       -1.36555540154107
O            2.31867777763393       -0.36506195719693       -2.12429723365099
C            4.49942122189855        0.06844200965162       -1.34946985636587
C            4.86641459859112       -1.33453830321502       -0.85570569184749
C            4.72477376483762       -1.57064024176271        0.62180663661004
C            5.41982049656465       -2.65478216304871        1.19924103566589
C            5.34547340935793       -2.94189277460497        2.53357943834219
C            4.55407282014932       -2.13407922018645        3.35885247908297
O            4.27654049849600       -2.13370345404896        4.69903655309066
C            3.42970553327693       -1.05793242364865        4.88172474353957
C            2.89539545551552       -0.68506907485293        6.18806585249260
C            2.10434006481148        0.45048982353585        6.34080226263325
C            1.61606728987067        0.80382867077700        7.57399232526184
C            1.90087780062775        0.03172003273780        8.70326985692196
N            1.39845692385135        0.38697476326149        9.99385028095447
C            0.01373099810143        0.84842429392015       10.11152168327302
C            2.18034645059448        0.24668094065269       11.17881881574171
C            1.58741273146988        0.10086574837328       12.43298524079071
C            2.35762626529684       -0.02615389990361       13.56694504473313
C            3.73521079253326       -0.00529246531639       13.47739403407314
C            4.34066501908952        0.14789330690813       12.24637877735245
C            3.57322900866578        0.27448657819122       11.11123435538859
C            2.69127350790766       -1.10891055330988        8.54193165640437
C            3.18033298625531       -1.45900872325369        7.30869856012592
N            3.15594126498162       -0.40056736646708        3.76680078482345
C            3.84072710377058       -1.04468263422873        2.79289040916640
C            3.93023683853072       -0.78182814928623        1.41826051351275
N            5.03935867294766        0.32253597203127       -2.67413080700325
C            6.37792165554746        0.62048952754642       -2.86325656402799
O            7.10772407763870        0.80350236079816       -1.90329891356645
O            6.77871284345488        0.67944918397865       -4.17425662073194
C            8.18273065399809        1.00275173190553       -4.37579783404952
C            8.49450660736507        2.38739930462451       -3.79379220303763
C            9.07021293137226       -0.07141687670528       -3.73454477232587
C            8.43087499074010        1.02444369215585       -5.89170819294174
H            0.78850214199444        2.06886681682051        0.12502651530695
H            0.69211981915796        0.35732948097644       -0.37881381483565
H            0.88438828450709        1.63887360384625       -1.60685765835383
H            4.95182832707787        0.81622423878307       -0.68313324739056
H            5.90456583938474       -1.53440153117671       -1.14195973899574
H            4.26042096605730       -2.06560808247005       -1.39940010843691
H            6.02679955934874       -3.27152429938834        0.55878365681909
H            5.88186042295169       -3.76856009876686        2.96322434418211
H            1.88903198093041        1.05182856162386        5.47502430707670
H            1.03525357404887        1.70230643166242        7.68436260695849
H           -0.41818114671759        1.03948770612116        9.13227522198364
H           -0.02516909461623        1.76696081895775       10.69375339494674
H           -0.59283625743789        0.08811740064692       10.59903851532853
H            0.51545655955766        0.07589551293574       12.51223344962190
H            1.88423288700428       -0.14349552844328       14.52792399726119
H            4.33600295145281       -0.10558495198200       14.36636894753150
H            5.41568437512820        0.17056396233653       12.17484274217711
H            4.04516937455612        0.41491595879642       10.15486582831630
H            2.89873548095910       -1.72165825682125        9.40155874783872
H            3.78993491204152       -2.33804182394330        7.18897794913135
H            3.36913471153066        0.03549008152323        1.00783869109306
H            4.45438635147969        0.02694943441703       -3.44950629006741
H            8.32784014951699        2.39491970739072       -2.71855203630485
H            7.84652025388467        3.14034279552152       -4.23841533182431
H            9.52945229008920        2.66900007768605       -3.98141835729430
H            8.91855239275863       -0.09739638349600       -2.65746337121430
H           10.12415447785881        0.12269824562499       -3.92667966405901
H            8.82241628559427       -1.05405985530270       -4.13113410462717
H            7.79538387640462        1.76858174859710       -6.36806690743990
H            8.19281157333986        0.05594526829242       -6.32737240467946
H            9.46925323218638        1.26019630341079       -6.11963817528323
