75
 energy: -14.774574262433 gnorm: 0.000621656465 xtb: 6.5.0 (97a52f5)
C            1.04470032460691        1.04084445219899        0.23363066560591
O            2.30796473941870        0.50146899841108        0.47765796369512
C            3.21877738525700        1.50025204185505        0.66106019467835
O            2.97889682523813        2.68606609175593        0.61975152352187
C            4.63988928053167        1.04037199012382        0.91165725384011
C            5.50893959218212        1.23687474019877       -0.32813455228773
C            4.99389633651901        0.51463642684129       -1.53385579426101
C            5.07172403614898       -0.89150316397615       -1.59777577966220
C            4.59337939345814       -1.59502666254277       -2.66784525228001
C            4.01409584067473       -0.89778571953673       -3.73625386337507
O            3.46636057877047       -1.27918626289180       -4.93173952397810
C            3.09824435661310       -0.09605152365731       -5.54302104507117
C            2.49227958672740       -0.03843424451252       -6.87019970681766
C            2.24649082169631        1.18555903324223       -7.48646967726954
C            1.70361686296454        1.23771821904217       -8.74567634354782
C            1.38133291131801        0.06694700512119       -9.43088478077766
N            0.83637083744112        0.12300295637005      -10.75472735058843
C            1.31546092679244        1.10598087345451      -11.68459087255950
C            0.44798810902515        1.71758359477935      -12.58563934179608
C            0.91164181116553        2.65647757289240      -13.47909912748626
C            2.24882659790145        3.00135794690180      -13.48980020982502
C            3.12184177633116        2.40380461879804      -12.60232491433590
C            2.66061385621448        1.46512345035149      -11.70761364089712
C           -0.16493505325627       -0.82101848463839      -11.16102576395182
C           -0.17726131837971       -1.33420399539546      -12.45519212393022
C           -1.14404738459203       -2.23316047977400      -12.84466463425478
C           -2.11549211372919       -2.63622859053024      -11.94978109457558
C           -2.11601420081307       -2.13738175135850      -10.66208906408801
C           -1.14989506957625       -1.23880724900556      -10.26999291533556
C            1.61914651928795       -1.15753047607272       -8.80691566637589
C            2.16920612255780       -1.20905431497420       -7.55004807159168
N            3.35884921573577        0.98045221042650       -4.82004823509171
C            3.92978022475594        0.51931059077271       -3.68292959586688
C            4.41857912183848        1.21369590138132       -2.56617764325641
N            5.19104798650624        1.73445146232928        2.06298511248386
C            6.42071720832628        1.38070861324648        2.59581938363813
O            6.97323233083094        0.35110950352065        2.24566696926891
O            6.93297339997438        2.27758264853729        3.50005030772167
C            8.24427032834780        1.93942153038200        4.03115015868691
C            8.17923684307699        0.60986187835051        4.79270480513375
C            9.27235203789567        1.86822896924541        2.89474328856740
C            8.64309619512668        3.06055871306291        5.00279499014946
H            0.33010421786128        0.22858329292518        0.08341002768101
H            1.08433558786418        1.66592235863164       -0.66130621918442
H            0.73875955949264        1.64655214849015        1.08965064588705
H            4.60787917558362       -0.02781763627398        1.16652661634710
H            6.53176258403398        0.91099555570537       -0.11295593544769
H            5.57509642666237        2.30818558274008       -0.53914649332134
H            5.52127653518752       -1.41633865743475       -0.77250743155967
H            4.65527895438993       -2.66741309554609       -2.71004844598436
H            2.49622699081432        2.09019542437057       -6.96053732023790
H            1.51322356805670        2.18524611686540       -9.21808775085249
H           -0.59406481497481        1.45078080123514      -12.56669477486260
H            0.23003792909140        3.12370463092020      -14.17061955680205
H            2.61085491474566        3.73587432005456      -14.19026535703904
H            4.16574556352951        2.67092040435366      -12.61177952196917
H            3.33777408718534        0.98795647606314      -11.02113628425793
H            0.58787714650691       -1.02377005396274      -13.14485000216343
H           -1.14229739849599       -2.62337976510162      -13.84907696852149
H           -2.87264149906299       -3.33914943646642      -12.25609667327366
H           -2.87504543952818       -2.45017229658561       -9.96412111569860
H           -1.15185231511229       -0.83736393117136       -9.27182405396569
H            1.38249132154995       -2.06422650147564       -9.33521220415390
H            2.36450056995988       -2.15473657672351       -7.07462233661565
H            4.33339628269307        2.28362607405150       -2.52789593219512
H            4.82168677490964        2.66917891233772        2.20631684447547
H            7.89765428391861       -0.19951181023341        4.12222403696904
H            7.43431334583192        0.66252523561059        5.58441671544096
H            9.14157964219270        0.36505019680639        5.23947470164630
H            9.01608605288278        1.07262359316313        2.19821071827892
H           10.27235547252600        1.67556162576803        3.28013268966372
H            9.29102181677840        2.80503469479197        2.34098398687667
H            7.91372441309914        3.14157909995610        5.80650584511002
H            8.67361827930030        4.01694723667705        4.48416473009615
H            9.62212478962105        2.87447686473235        5.44166078775925
