65
 energy: -12.569714911157 gnorm: 0.000616857218 xtb: 6.5.0 (97a52f5)
C            1.07510909079078        1.27545083373102       -0.71997371481024
O            2.46522083051056        1.21918978474250       -0.61754985341334
C            2.95159163765673        0.20919409795174       -1.39417313509366
O            2.28214686567925       -0.54069023667218       -2.06852449787103
C            4.45592714010691        0.03803498493027       -1.37582081990115
C            4.87025821274838       -1.28716101460510       -0.72966084962035
C            4.76247358142692       -1.35308276174540        0.76761399404891
C            5.50902253633183       -2.33578844924113        1.45198602857156
C            5.47404794348187       -2.46231031302488        2.81256472792210
C            4.67226895412495       -1.58744704966979        3.55539833886656
O            4.42671115370928       -1.43193208469092        4.89277486311230
C            3.54622097561021       -0.37047095249292        4.96728061406909
C            3.03471835612946        0.14583341518798        6.23326168682202
C            2.18026390927242        1.24470578991337        6.26625763610520
C            1.71641302139551        1.73463884791371        7.46135222312730
C            2.09854212329513        1.14945977117429        8.67093349312344
N            1.60571421295638        1.66239617430291        9.88768355942308
C            2.14201357247308        1.50956772292882       11.18707066905987
C            1.31249239919690        1.63055988376593       12.30177403172169
C            1.82120296001932        1.50541558903731       13.57444253994207
C            3.16836835290281        1.26718058926044       13.76235591922561
C            4.00753088869531        1.16184833028942       12.67069772655110
C            3.50230008984264        1.28533889457442       11.39653859290834
C            2.93936312122349        0.03521697721125        8.63050045259246
C            3.40159772957228       -0.45383195510025        7.43436350716961
N            3.22165772613341        0.13479535365094        3.78862938054490
C            3.90646633716273       -0.59993902777080        2.88152043237466
C            3.95578140687089       -0.50188070770798        1.48349445420994
N            4.97228463960239        0.14962598915336       -2.72906026093796
C            6.30727857716002        0.42351541089674       -2.97189648283824
O            7.05320455549111        0.70642371701590       -2.04937681584232
O            6.68553691392389        0.34138859606916       -4.28796642004494
C            8.08621188275266        0.63693901168346       -4.54542318742518
C            8.40978165796153        2.07392207934357       -4.11681950069937
C            8.98207448088732       -0.36698585893102       -3.80907832599925
C            8.30852700520210        0.49856382500156       -6.05914277654510
H            0.70024988684215        2.07449608648860       -0.07584181508090
H            0.65053021589378        0.31853121462357       -0.40627411590295
H            0.79835876029827        1.47621320152403       -1.75792074548108
H            4.89423361760285        0.87039087645714       -0.80771420541884
H            5.90875385017553       -1.48968263555502       -1.01110890897522
H            4.27663944891941       -2.09213735137488       -1.17301325753851
H            6.12567529350851       -3.00312968080858        0.87465818625683
H            6.04953366686668       -3.21254617192145        3.32412192673173
H            1.89326966618234        1.70634813628481        5.33786450357445
H            1.06135385013399        2.58781032156630        7.47919769819713
H            0.75703804658554        2.21674809476310        9.82283409900744
H            0.26289388990511        1.81414370821493       12.15275881168301
H            1.16722893324176        1.59439114568926       14.42631329161886
H            3.56522969403725        1.16978884220054       14.75948380197139
H            5.06102512733882        0.98868914053707       12.81736278112215
H            4.16336352251372        1.24778376981647       10.54916295146924
H            3.19465368505742       -0.46172121963184        9.54910401137960
H            4.05239392902130       -1.31083278677446        7.40648461502644
H            3.35892977186783        0.24265420322741        0.99259455692934
H            4.37564124782553       -0.23136675153295       -3.45708992009903
H            8.25934401867467        2.19475503122817       -3.04590781270854
H            7.75587377994656        2.77809986526370       -4.62766000907238
H            9.44226973591856        2.33099899497143       -4.34842059771863
H            8.84854390293119       -0.27835281839549       -2.73273468413072
H           10.03318791480623       -0.19838582394304       -4.03823271595171
H            8.72543581321759       -1.38518936558479       -4.09556138237837
H            7.66417444840764        1.18898648362632       -6.60014605773414
H            8.06378112709782       -0.51020244096065       -6.38634639678182
H            9.34267831290548        0.70804267194181       -6.32842684042971
