52
 energy: -9.837942848803 gnorm: 0.000445130979 xtb: 6.5.0 (97a52f5)
C            1.36645420371796        0.67805917200120        0.60541067748518
O            2.63018153639122        0.14979098957031        0.34538296069761
C            3.46542868260304        0.39274689270294        1.39371595348724
O            3.17107966494273        0.99229690874582        2.40293108331263
C            4.87740721441702       -0.12808385904649        1.24246568867774
C            5.81739719710466        0.95132846693925        0.71140173468601
C            5.42294762040260        1.49228909647704       -0.62726128823416
C            5.55348649434096        0.68286090944556       -1.77440783922723
C            5.20823175385851        1.12972926242445       -3.01830258978041
C            4.71643284429346        2.43389601343884       -3.15815662173916
O            4.31369100084177        3.18007146985244       -4.23088465508247
C            3.95865261174668        4.40137918355059       -3.69731524124404
C            3.48217949395166        5.51193385018934       -4.51663908308265
C            3.33490870202863        5.38082593338344       -5.88531153306755
C            2.89515348254393        6.45468008423496       -6.61868635377313
N            2.59250221289047        7.63931509005101       -6.11116278976901
C            2.73980723139041        7.75264493648936       -4.80041910283866
C            3.17129931347642        6.74571672892877       -3.97321935319163
N            4.09900147166103        4.46883612435762       -2.38419307676865
C            4.57183305666215        3.25688195684679       -2.01023799038913
C            4.92617662289027        2.76703347617242       -0.74411007320968
N            5.32903420101363       -0.63598575380547        2.52485096268020
C            6.57447827562016       -1.22273606475489        2.67726287409251
O            7.24953608970508       -1.49641576624170        1.69960384484280
O            6.95931078854381       -1.43762886884556        3.97510214742420
C            8.27640608910556       -2.03176916904906        4.13327568655583
C            8.31152469756906       -3.41431005156396        3.46931303762954
C            9.34620667389159       -1.10983826564932        3.53331141247397
C            8.52603429208441       -2.18447210051590        5.64148080459400
H            0.71993526017522        0.49300791850851       -0.25545338786159
H            1.45430272829019        1.75300064178223        0.77968313140748
H            0.95134326064163        0.19424941457758        1.49274753711728
H            4.85868472981631       -0.97509092056532        0.54304114330887
H            6.83167575638307        0.54364231446505        0.65356299314524
H            5.86125111456835        1.76378995414062        1.44225149220428
H            5.93947929912488       -0.31492012853598       -1.65533473827447
H            5.31138617966414        0.50897835072330       -3.88998049531553
H            3.57223399721027        4.44128234431198       -6.35440563035470
H            2.78220032139934        6.35176479508749       -7.68795811562635
H            2.50028607889918        8.71666443163138       -4.37616573889628
H            3.27674645661303        6.90068005532775       -2.91363085601221
H            4.80858616454775        3.39513258989978        0.11913175535350
H            4.84156926927932       -0.22887443765165        3.32094750242685
H            8.12904090577250       -3.32623839775129        2.39995273206301
H            7.53809488672582       -4.05514046959345        3.88837994935539
H            9.27677693502632       -3.89699568397133        3.61381847579956
H            9.18798399879447       -0.99012974095566        2.46329609155796
H           10.34577118961792       -1.51295195883598        3.68799413742700
H            9.29653096454104       -0.12364952839622        3.99104681160638
H            7.75819785456494       -2.81244357316269        6.08936561060421
H            8.48680545667606       -1.21296082901596        6.13059399765060
H            9.49857367195664       -2.63252378832918        5.83943432408933
