48
 energy: -8.730428517088 gnorm: 0.000390278625 xtb: 6.5.0 (97a52f5)
C            0.46795626063821        0.67600501271089       -0.75743079414419
O            1.77929195751875        0.82046346358327       -0.30276786594107
C            2.66012156058546        0.46670856322438       -1.28338276528247
O            2.35590119021549        0.09614213714937       -2.39525696485014
C            4.12469835947209        0.58288745264535       -0.91329101039002
N            4.80194048176061       -0.67809639831279       -1.17157241494493
C            5.64472595699754       -1.25282753995335       -0.24529767008243
O            5.92576245350062       -0.70967069312880        0.80571875095679
C            6.20264348714734       -2.60816510108028       -0.56011040738911
C            5.43746084454605       -3.71117626865134        0.15088754588291
N            5.96611054424623       -5.04609607275843       -0.11225728201849
C            5.45779858262484       -6.22878823469365        0.41278925392026
C            4.30940041780204       -6.21191360286122        1.18716041426584
C            3.78318898663090       -7.37379674296066        1.73772199372271
C            4.39110889667777       -8.57817021403736        1.52879770625508
C            5.56173078421939       -8.66512161543249        0.74661619657591
C            6.20150466300396       -9.90397152072917        0.52031643440736
C            7.32891941812649       -9.97635253319558       -0.24114509140727
C            7.86586940102703       -8.82065052267488       -0.81132947825119
C            7.27128687893902       -7.60798247482407       -0.61062307342468
C            6.10744884356489       -7.48801335247394        0.17448216317368
C            4.79990321173440        1.75600688463234       -1.64541112650867
C            4.09736492219450        3.07804229666410       -1.34012735993760
C            6.28561425508919        1.82628808724710       -1.30396740329442
H           -0.22220382837856        0.96250513474991        0.03908263880990
H            0.29532529300422       -0.36587074101999       -1.03628213924936
H            0.31247869339688        1.31754423220818       -1.62764079579470
H            4.18747354989941        0.76337760838282        0.16811892938668
H            4.50659091623489       -1.16852632547020       -2.01524308658278
H            7.25583617167671       -2.63261126759060       -0.26523033802723
H            6.18651372290735       -2.77394192539546       -1.64137585747404
H            4.38548134513288       -3.68697978925665       -0.15194755329830
H            5.45247664778013       -3.53657563881884        1.23214587945211
H            6.86018579106024       -5.02042397710006       -0.59410504523416
H            3.81450744209883       -5.27501363846669        1.36871030121182
H            2.88807987785880       -7.32173159355575        2.33565104348175
H            3.98133185606903       -9.47589809250496        1.95822324162019
H            5.78501200874824      -10.79405386271253        0.95932483651971
H            7.80868538355209      -10.92706771275850       -0.40586408263423
H            8.75614390538456       -8.89053052663374       -1.41468268575069
H            7.69741910452290       -6.73305654269274       -1.06506677161035
H            4.69827129778788        1.54705394814398       -2.72385303981345
H            4.15853959418546        3.30842676774470       -0.27684895413117
H            3.04077215907851        3.03846787202576       -1.60660988980441
H            4.55068998793407        3.90693044496849       -1.88445216337855
H            6.42488432133540        1.99813316756930       -0.23692608529739
H            6.78384149493789        2.63483736521182       -1.83982555044314
H            6.79263090553159        0.89331408288306       -1.55090258323558
