56
 energy: -10.340028257776 gnorm: 0.000355517271 xtb: 6.5.0 (97a52f5)
C            0.09865166921860        2.08704180937984        0.26507347494043
O            1.44529086707453        1.78272022349098        0.45073419250522
C            2.01022328668230        1.42903666109190       -0.73310906123626
O            1.43396307236917        1.39652404069423       -1.79531558059640
C            3.48208627287624        1.08525673146310       -0.67677552659502
N            3.81107238214056        0.21765513893264       -1.79720925006100
C            4.69384270147358       -0.83548961406148       -1.65415451621696
O            5.32735245820102       -0.96618356082226       -0.62326516552877
O            4.77835142493719       -1.68265503507962       -2.72236779413052
C            5.66264221043765       -2.81666667483455       -2.53053188643778
C            7.09862694036908       -2.32489882415296       -2.29142697182189
C            5.16701472975421       -3.66544790949549       -1.34898076107921
C            5.60550572926613       -3.64518414592466       -3.82511489585765
C            4.32813820727099        2.32846302277700       -0.63713993074824
C            4.10887606045948        3.28666099787840        0.37352691361107
C            4.84749027015498        4.43233917631794        0.45682004259552
C            5.84896128975475        4.66185460965485       -0.49679757004111
O            6.73864227622872        5.67517249990538       -0.70252952369250
C            7.44880875406410        5.30307720201014       -1.81893214044878
C            8.51335363820221        6.12326339249901       -2.38725778678166
C            9.19334486365494        5.71841036740423       -3.52789595593235
C           10.19512089725731        6.49872940373906       -4.05877172031847
C           10.91945180331015        6.05900721420390       -5.31836587450049
F           10.61334233637107        4.77645602358238       -5.56972562109170
F           10.52046669280696        6.83812154385179       -6.33561773524611
F           12.24059649006755        6.19378313622425       -5.12526190816919
C           10.52907078918794        7.69238331441051       -3.45148319315757
C            9.86305726048747        8.10845720333255       -2.31628787751248
C           10.25501541428906        9.41481051525211       -1.64803942212095
F           11.45662759369001        9.25634643913105       -1.07174145594952
F           10.31630954167678       10.37503975423531       -2.58372426463645
F            9.33514647309359        9.72655908916753       -0.72161532150108
C            8.85957486803590        7.32694954402440       -1.78882282567565
N            7.07479089495073        4.14105320728409       -2.32068828845293
C            6.07627912223523        3.70693662809373       -1.52003316738405
C            5.30436313967180        2.53813587702168       -1.57607531232281
H           -0.33240450359712        2.35835021585426        1.23263151964306
H           -0.40754257663303        1.20778393984618       -0.14386964884514
H            0.01954009639275        2.92344971804701       -0.43544133442885
H            3.67181681457873        0.50314746779549        0.23781481488403
H            3.13221509996218        0.23653825006344       -2.56082326297499
H            7.14628480512508       -1.72565268139096       -1.38228808069635
H            7.42650782852506       -1.69922149096575       -3.12026666535652
H            7.79258920025472       -3.15869757562751       -2.19030218068873
H            5.19676152476326       -3.08390004469604       -0.42771873047710
H            5.77980008874949       -4.55596578692657       -1.21345650885047
H            4.13600734494152       -3.97552470690534       -1.51347347423109
H            5.92152259100453       -3.03838359851656       -4.67249495648295
H            4.58379094212446       -3.96967088530506       -4.01760407948394
H            6.24581951351915       -4.52482219568324       -3.76775060623720
H            3.32043679039911        3.10463027375567        1.08469425982397
H            4.67570349252168        5.16362072405369        1.22782042785598
H            8.94246151200058        4.78451711809494       -4.00254542565409
H           11.31512869871811        8.30268269563735       -3.86530011166294
H            8.33678078139884        7.65426063006315       -0.90504793721978
H            5.48038753354980        1.81665893014200       -2.35127433732904
