62
 energy: -11.271147991772 gnorm: 0.000705726608 xtb: 6.5.0 (97a52f5)
C            0.01832365154095       -1.81958978708888       -0.86865180711513
O            1.25675306297879       -1.77138700641078       -0.22758169287973
C            2.16522840562308       -1.13048510060888       -1.01272526810571
O            1.94554380838226       -0.69051466484055       -2.11945699494293
C            3.55549915477518       -0.99539265553623       -0.42184054414586
N            3.48883158102965       -0.36709784663329        0.88573878480887
C            4.55474956717589        0.35453581466366        1.39296589496536
O            5.52422336232733        0.59077101137017        0.69216880055058
O            4.41799699196573        0.75196480947359        2.69723578042634
C            5.53094309269532        1.52443163995891        3.22302506081914
C            6.81574623057788        0.68672656484262        3.19093899999872
C            5.70056397844288        2.81703274642203        2.41378490341119
C            5.18906313592130        1.87646711438082        4.67900475974495
C            4.28947179729777       -2.30758487106065       -0.37061538782249
C            5.69772394993690       -2.31111680976133       -0.34559534767881
C            6.41833469907375       -3.47071224907930       -0.28594260866142
C            5.73385408529368       -4.69231591491835       -0.23382910812816
O            6.13197890606193       -5.99910944751863       -0.17166337762067
C            4.95788874587696       -6.72294510442242       -0.13691690221722
C            4.92845078299793       -8.18119791139595       -0.07105835697784
C            3.72390895963985       -8.86326247906495       -0.05286227527476
C            3.66812739111151      -10.24835816594890        0.00393036182538
O            2.37768950497421      -10.80748103691099        0.01654497707468
C            2.31596995094046      -12.19944742172997        0.17896344557379
C            4.87873894329975      -10.97923102861826        0.03608744801820
O            4.82946163649725      -12.38400410447991        0.08265637364551
C            5.82733232119654      -13.03289178434703       -0.66819872883319
C            6.11406458975476      -10.28760844571949        0.03841500584075
O            7.29082910730648      -11.04588618151921        0.11508351873351
C            8.48581244040299      -10.30255753458607        0.19463678255371
C            6.11101911267476       -8.90009233166916       -0.02292543128182
N            3.86936620778700       -5.97458761886604       -0.16861215308142
C            4.31413058520262       -4.69935325809647       -0.23190793503886
C            3.60444529760318       -3.49292739355530       -0.29424825735153
H           -0.69873773003305       -2.32876591422873       -0.22053631770070
H            0.12069329825808       -2.36471687729446       -1.81001755274889
H           -0.32095780432862       -0.80049602587360       -1.06943439173011
H            4.11733566684246       -0.30474832586054       -1.06618399584785
H            2.73659800192800       -0.68488646139844        1.48957370139664
H            7.07776967176255        0.43234876248368        2.16580772852950
H            6.67644846240418       -0.24193824158142        3.74097190666009
H            7.65043922267753        1.22813082881116        3.63341614912595
H            5.93486151592552        2.58641624869925        1.37626061726506
H            6.50204236186710        3.43338562236934        2.81775128319055
H            4.77892972240512        3.39565301639470        2.42767991604302
H            5.03709987494020        0.96944674936045        5.26112000279425
H            4.26829821331600        2.45535770461983        4.72089475359095
H            5.98449208064167        2.45689318750680        5.14397894253785
H            6.20565013777145       -1.36205667694778       -0.34640621272464
H            7.49351458268251       -3.46661756407984       -0.26747065706264
H            2.80228708693888       -8.31290124999675       -0.08437101129697
H            1.27017021929414      -12.50119652540937        0.25357059135196
H            2.84817213139850      -12.48115553350186        1.08933843334556
H            2.77693996144050      -12.68058378061786       -0.68508634241562
H            5.51802339847195      -14.06238381746891       -0.85446549527369
H            6.75697056896211      -13.02945696534391       -0.09700197246042
H            5.97116182438043      -12.51333015641484       -1.61693408763823
H            9.31723586313356      -11.00144359398216        0.29491185719362
H            8.46138705363961       -9.65371237040328        1.07134695026077
H            8.62032633261430       -9.71920869932358       -0.71715914468471
H            7.03396898403566       -8.35229645069396       -0.03335826767136
H            2.53136425825739       -3.50536843651248       -0.27016610489548
