62
 energy: -10.630790533284 gnorm: 0.000568752599 xtb: 6.5.0 (97a52f5)
C            0.53196716339867        0.46658136179760        0.48155393704934
O            1.87159108436381        0.28303953889367        0.82138534352431
C            2.61370738174038        1.34221871559493        0.39220195745343
O            2.17248839275577        2.31077166375327       -0.18368907904864
C            4.09586535641183        1.27209311781326        0.70470901921776
N            4.86813533386846        1.56260020400941       -0.49267312876153
C            5.18038809382682        0.55592795720435       -1.39416268003384
O            5.05045100573940       -0.61473620950585       -1.07957335212611
O            5.61744018471607        0.98800908092269       -2.62029798311126
C            5.87761587853296       -0.06629577640002       -3.58654130471069
C            6.99995595595914       -0.98080421027535       -3.07925731502498
C            4.59479391718022       -0.86686197962199       -3.84821756266104
C            6.32541345931082        0.61405303049148       -4.88938235947130
C            4.46933631697773        2.17566332541698        1.84750487894504
C            3.95748875544228        3.48570153643562        1.89636045553985
C            4.29117213099931        4.35866126520956        2.89232509280592
C            5.16855375299953        3.93295410261315        3.89781646190155
O            5.68854064578755        4.53334144170813        5.00965033694878
C            6.49181190033138        3.57038061840784        5.58899994532295
C            7.23242555524462        3.78194531709821        6.77980207805200
C            7.97365348880929        2.84641196328994        7.40218595949788
C            8.74034515983647        3.00251712995395        8.55853118658747
O            9.56127337724825        1.89230782805076        8.85905208650717
C            9.78783775144070        1.68517401755205       10.23136064645347
C            8.77629822311776        4.16670443452126        9.37616562851999
O            9.87712439630631        4.30123947163064       10.24506032331817
C            9.85232844523870        5.46998397367924       11.03327410894574
C            7.81244969889351        5.13322249033009        9.37046832437241
C            6.58183445642552        5.13701998123738        8.77950420710214
O            5.95191973337819        6.25893847922879        8.84487456163632
C           -0.94024980189740        7.33080411849765        2.70452005746935
N            6.50636848978553        2.42616165117025        4.92639551147451
C            5.69241069325766        2.61412083817408        3.86197796796614
C            5.33886433912522        1.74458094212165        2.81824730501750
H           -0.04601581011363       -0.39106872658919        0.83328901284749
H            0.44594821849655        0.55204713859500       -0.60433011549050
H            0.16337247094906        1.38103665925970        0.95240208959117
H            4.32783254173775        0.23431467016334        0.98115266047388
H            4.77356019063642        2.51807262902403       -0.82289632554965
H            6.70225634145735       -1.46980280384980       -2.15373569922601
H            7.89839066780095       -0.40092871046649       -2.87685150496989
H            7.24250856850106       -1.75007912466609       -3.81066076640768
H            4.25709859326981       -1.35308667464037       -2.93497941582249
H            4.75542656979269       -1.63301807880092       -4.60497151513489
H            3.79935126522456       -0.20645219458355       -4.18825733750700
H            7.22145665236416        1.20717951009301       -4.71681998142088
H            5.54827299161674        1.28471653987865       -5.25108751225257
H            6.53932536073528       -0.11839733927743       -5.66620041858727
H            3.27254929503239        3.78933576664971        1.12388367209228
H            3.89454109072023        5.35759430995058        2.92425930925038
H            8.04344685814576        1.88376170553273        6.92680232922948
H           10.12776604340490        0.65941657974779       10.38190044496567
H            8.86305508871742        1.85033202346213       10.78667966118076
H           10.55790435126842        2.37823530763086       10.57337411631299
H           10.74373369290222        5.48639662085156       11.66176320013930
H            8.96352790289299        5.46663053555450       11.66605752018691
H            9.85077379079430        6.34860017334909       10.38650246555363
H            6.47474572273953        7.01352362896171        8.45053441564751
H           -0.06987127325697        5.09985530079731        6.70985303361600
H            4.28339558114905        5.46643805834947        6.41028796341675
H           -0.75373466233973        8.15169928434847        2.12357539601214
H            5.75312116667743        0.75426578112893        2.78708068574817
