51
 energy: -10.039984486446 gnorm: 0.000579180585 xtb: 6.5.0 (97a52f5)
C           -0.31244578021614       -1.56240617037933        1.81409951008063
O            1.04587903167053       -1.24610420092890        1.84934829647541
C            1.61478022237733       -1.48534184843518        0.63615898959140
O            1.03280338151006       -1.92672819947430       -0.32940135919721
C            3.09994841959453       -1.19641428976564        0.52649791566944
N            3.49780388442029       -0.25750776802983        1.56790364215157
C            4.49950465656790        0.67437997152278        1.36820807766032
O            5.17379205048526        0.64114541615644        0.35388710442776
O            4.65385034401608        1.58842015669048        2.37578696919728
C            5.70057343300912        2.57138089208998        2.15346593430397
C            7.06152912044596        1.87226285167272        2.03519379770226
C            5.39342628484672        3.38811270015495        0.89091324026445
C            5.70999827126212        3.50351318402033        3.37488895186108
C            3.91314649129288       -2.46430651737973        0.54117386855699
C            5.23732836151630       -2.45017506461630        1.02121097257852
C            6.02140876647590       -3.56838941054133        1.02833687272036
C            5.49536018232982       -4.76628514111886        0.52650774598777
O            5.99489925348015       -6.02908491996807        0.37452511606087
C            4.97020248465750       -6.74775046082359       -0.20365948283454
C            5.09211484701166       -8.16240811673520       -0.54815935791571
C            6.27907589248663       -8.84079353737443       -0.29900128957796
C            6.40565622011152      -10.17024088644323       -0.62477123524601
C            5.34880008909884      -10.85997777462955       -1.20932269554992
C            5.47683828481917      -12.21668571619261       -1.54309414796764
N            5.58155953838482      -13.33938515992190       -1.81893359865070
C            4.16113025706576      -10.18009983941185       -1.45768750643297
C            4.03439944647959       -8.85081803909815       -1.13153804210864
N            3.87721031229907       -6.03547897903048       -0.41699053625878
C            4.16729150799025       -4.79168374474503        0.02645818994484
C            3.38881366027804       -3.62687979685725        0.03684413045247
H           -0.75385589314397       -1.33815727615529        2.78797508913570
H           -0.42645708909350       -2.62539787134808        1.58831031756340
H           -0.79802244780634       -0.96603159789027        1.03772981026890
H            3.27554398369923       -0.69080534852393       -0.43331489974049
H            2.84317060170102       -0.16321907427022        2.34594071639521
H            7.07019590041845        1.20194976784538        1.17761365656998
H            7.26130140695828        1.27934040463168        2.92579762085509
H            7.86700913118454        2.59469607775319        1.91296174841755
H            5.37297789204619        2.74031495848160        0.01626565620840
H            6.14317798046222        4.16074147289294        0.72798691805626
H            4.41840999429846        3.86427356020932        0.97599669032899
H            5.89892948211176        2.93305192060062        4.28239504086401
H            4.74247058576640        3.98984118257984        3.48483180894129
H            6.47600490853155        4.27198851459771        3.28264291344889
H            5.63514739286515       -1.51616266819801        1.37516826870190
H            7.03115358914360       -3.54877305037054        1.39744973815196
H            7.09630219996630       -8.30479090638667        0.15296010659008
H            7.32700151369804      -10.69259837285520       -0.43043561636190
H            3.34085172499589      -10.71030435119812       -1.91112528783317
H            3.11523707341763       -8.32545737349700       -1.32406372387306
H            2.38841115296102       -3.65109955928435       -0.35309664668329
