64
 energy: -14.015628845082 gnorm: 0.000787108504 xtb: 6.5.0 (97a52f5)
C           -0.99400244225726       -0.79696375298885        4.28065362570097
C           -0.39157687924081       -0.23034259484604        3.21839901624782
C           -1.15438179198885        0.92483161567326        2.86967861739846
N           -2.17411429003661        1.06849051665410        3.74648003498190
C           -2.12140973798547        0.02275273434431        4.60456160746782
C           -3.11160574116905       -0.31098781131620        5.58608079395586
C           -2.95016180982042       -1.46366272997485        6.46684352448135
C           -1.74888604537395       -1.97131488711007        6.97418244010507
C           -2.06721281281314       -3.04069192891496        7.78561178984907
C           -3.44160494246879       -3.16446329092291        7.76449581450113
O           -3.99412009409927       -2.21172811352596        6.97748550985790
C           -4.29407318104546        0.45115019100969        5.70615228862034
C           -5.42557342142785        0.16049020742617        6.47387946985166
C           -6.43147272439586        1.11986431061091        6.42308059087230
C           -6.12428500887318        2.22115204671753        5.62880668256701
S           -4.54360906411679        1.98203960366351        4.94290097802821
C           -6.91182482144860        3.35145924660139        5.30418267796726
C           -8.32508599041331        3.37685476091628        5.60722075426628
C           -9.20708078457266        4.39300548776556        5.23608011783561
C          -10.45213097503330        4.04313327735878        5.71793426525598
C          -10.30480479120191        2.83244363234905        6.36714827234020
O           -9.01791041348230        2.41244600608481        6.30955668037006
C           -6.26687691461354        4.42979942490717        4.55239960086102
N           -6.42543269373085        4.63898046656276        3.22291347006231
C           -5.31556896527777        5.27856377956264        2.78306214650924
C           -4.83447530050504        5.23949701647213        1.40519596927601
C           -5.65803043035041        5.80214376983369        0.35036753620634
C           -5.60033176863544        5.51087523087707       -1.01549096235337
C           -6.57979240058692        6.26284402195648       -1.63171539712347
C           -7.20991967004428        6.99035661527579       -0.64150729638565
O           -6.66564256129275        6.71981619993797        0.56870147028074
C           -3.66001135743354        4.47771408105560        1.15040608596730
C           -2.82989148779446        4.42048185779258        0.03165842907163
C           -1.81206771469217        3.47632730639928        0.12443975513365
C           -1.78179917770421        2.75321435377913        1.32193438396944
S           -3.07537736620014        3.32448959507399        2.31673653491893
C           -0.88902711239857        1.72820342791187        1.71484756910459
C            0.30128418534201        1.43802470302444        0.92201591642706
C            1.03233648514386        2.35590301163689        0.15970383952628
C            2.08503230646873        1.66972450811165       -0.40944836446345
C            1.98350309881348        0.35975108373943        0.01181664551385
O            0.91307701828460        0.20249077596076        0.82508116360347
C           -4.44166690308125        5.53426535739725        3.88990554098721
C           -5.02729766069236        5.01201303707192        4.97951751343405
H           -0.71989548216768       -1.73423518543336        4.73277772688468
H            0.46376607156079       -0.60645328065748        2.68390606464520
H           -0.76516345065596       -1.56137999493910        6.82270272871551
H           -1.37650637739586       -3.65252066536732        8.34248713943489
H           -4.01531778992761       -3.90969402748621        8.30289754951494
H           -5.50615754182337       -0.75039012086222        7.04504644425892
H           -7.37676321049973        1.02828580149681        6.93412285424324
H           -8.95418691267628        5.27429063723575        4.67183678834575
H          -11.36513475935313        4.60477988164093        5.60613041037836
H          -11.09769314603560        2.28107972218690        6.85895685998535
H           -4.95753123787210        4.79284594766515       -1.49399214108324
H           -6.81501957317898        6.27177651521992       -2.68347712859248
H           -8.03054887688691        7.68223915237874       -0.79253416068490
H           -2.95535834115299        5.06399252528765       -0.82412867464746
H           -1.13174816783649        3.28343777839942       -0.68925832603251
H            0.84928130929043        3.41383005401516        0.08290274225959
H            2.84742554770623        2.08062197073002       -1.05082895812497
H            2.66062309514969       -0.44250249930300       -0.25669543260850
H           -3.46291900272023        5.98232912841122        3.83507320859842
H           -4.61013799928306        4.95707850744803        5.97187720146461
