64
 energy: -12.493714688228 gnorm: 0.000408049424 xtb: 6.5.0 (97a52f5)
C            0.49604454565188        2.44390422034195       -1.54536782961476
O            1.84369090454709        2.08536115959233       -1.50701152226275
C            2.18864445563973        1.69068619844703       -0.25072713855132
O            1.44355343451468        1.65977721732445        0.70321199337272
C            3.64036617968807        1.29816541165442       -0.06528846385733
N            4.16228178450249        0.75490907665693       -1.31142875613047
C            5.01928894296536       -0.33055338582731       -1.32843361234717
O            5.49276843145678       -0.75730606447619       -0.28980797687516
O            5.25897799222632       -0.85614161645856       -2.57061873450157
C            6.11404068587828       -2.03086474635626       -2.58598247131158
C            7.50446913104280       -1.67460061744337       -2.04488775993185
C            5.47698623186017       -3.15617461158326       -1.75951744848008
C            6.23420893648852       -2.48090985136170       -4.05024774026011
C            4.45028910281113        2.45447520897131        0.45288316660216
C            3.97241009707229        3.20019361703802        1.54750347932793
C            4.66338300381409        4.26288014056318        2.05674264257292
C            5.88230748506909        4.62044973678303        1.46807845834680
O            6.79180039569133        5.61061310627947        1.71199834510989
C            7.77974095889720        5.43129530499639        0.76536701483324
C            8.92673012055566        6.32967818140412        0.69769755118459
C            8.97080324728618        7.40442676052935        1.57544170966022
C           10.00278674043398        8.30516189451604        1.55036375952245
C           11.04985599408579        8.17461199243149        0.63840613126967
O           12.13071888790845        9.05473534049945        0.52985952304306
C           12.20702573126959       10.16046925122338        1.35007848132518
O           11.41150769777383       10.45463837745244        2.21727233457220
C           13.37841607090663       11.04064101895600        1.11343472183600
C           13.54525099301350       12.19735102105582        1.85941910790546
C           14.62734554212281       13.02035746192769        1.63997817821710
C           15.55572970610484       12.69600318998718        0.67198206132379
C           15.39944893409630       11.54677686379958       -0.07584307492522
C           14.31708198667787       10.72381016650612        0.14330232665830
C           11.01758649600018        7.09388104338124       -0.23450332225971
C            9.98133578628105        6.16291673031271       -0.23253334303758
O            9.98495248165474        5.10717365757539       -1.11617775396829
N            7.55468680700103        4.40447999188205       -0.03731391990077
C            6.37882159746842        3.87378745256735        0.36922672462249
C            5.64828164194050        2.78455053239191       -0.12632925149610
H            0.23777228856049        2.74499454592977       -2.56322365746953
H            0.32746093239388        3.27539787851562       -0.85686626288648
H           -0.11131418563725        1.58684673869039       -1.24474167321209
H            3.68249189154749        0.48582758640947        0.67371600733557
H            3.64049677192655        1.02212724216034       -2.14743930730880
H            7.43530603254008       -1.34448831753246       -1.01002890251479
H            7.94030722504227       -0.86409066499986       -2.62586920539079
H            8.17554527840409       -2.53094766513365       -2.08823874347378
H            5.38005576369593       -2.85434294724460       -0.71828736450735
H            6.07798843372136       -4.06326167128104       -1.79885270917785
H            4.48139219681726       -3.38490590911680       -2.13502328680569
H            6.66134716155909       -1.68376239914988       -4.65570204991560
H            5.25067584357997       -2.71273953672199       -4.45478690154860
H            6.86413118127940       -3.36407480102589       -4.14448404602673
H            3.02329430429926        2.92336847917341        1.97309160273889
H            4.29082639744763        4.83364518569913        2.88844991736767
H            8.16439202167470        7.52173388730007        2.27966607216483
H           10.01377968460659        9.13273735591925        2.23379944683439
H           12.81252404799580       12.43842154793979        2.61066747139146
H           14.74821343265751       13.91812935643636        2.22400282718259
H           16.40228038901295       13.34020527594160        0.49992972979508
H           16.12426744315950       11.29326577078130       -0.83213614315742
H           14.18337117252620        9.82536738787577       -0.43440234613620
H           11.82370194265852        6.98938829524293       -0.93478805010058
H           10.77667997686523        5.13341025632337       -1.68593042766338
H            6.02395320923103        2.21956668835475       -0.95722958910440
