76
 energy: -15.160514884754 gnorm: 0.000720292851 xtb: 6.5.0 (97a52f5)
C           -0.34817149834881        1.84452587293484       -0.55090311857729
O            0.94954179458316        1.62447112452865       -0.09112620493528
C            1.80311961507954        1.49766301244978       -1.14446938464671
O            1.49266254004043        1.58228230952265       -2.31128016842195
C            3.25423278086405        1.25917452449700       -0.77869473972893
N            3.90181555356123        0.54085518298024       -1.86468849570767
C            4.93828629275755       -0.34838449387020       -1.64983133397577
O            5.39989186191431       -0.49530188193906       -0.53153648145694
O            5.37543653554704       -1.00854563776121       -2.76731086901222
C            6.46173120090535       -1.94678454915374       -2.53876181755691
C            7.69315611914220       -1.20480902606300       -2.00161955614430
C            6.01303633509456       -3.04180451880077       -1.56155888757041
C            6.80102429173372       -2.58257396489584       -3.89569233709523
C            3.95558147262888        2.54588511092853       -0.43626741083744
C            3.31668081584034        3.49869313740863        0.38088356073334
C            3.92170653383869        4.67092652884165        0.73622769718179
C            5.21892870178206        4.92953122891650        0.27586015962120
O            6.08982022697345        5.96987148257867        0.43614312167047
C            7.21854631036781        5.60654317357071       -0.26646869057405
C            8.42228017591740        6.42677803391525       -0.37615004285930
C            9.35131335484192        6.15481790486360       -1.37233306773232
C           10.46320340025218        6.93828854479873       -1.54066665510871
C           10.69933713152185        8.04277113281703       -0.71681853651256
O           11.85060604148984        8.79132245644523       -0.96985865195392
C           12.11142353646137        9.92185856205859       -0.22759174748516
O           11.41308394107750       10.35709347072157        0.66299265869735
C           13.36269277838166       10.63431823614327       -0.58838031267930
C           13.72041361111200       11.80092603556141        0.06949713786493
C           14.87900258931378       12.46517033208607       -0.26720476920270
C           15.69328586938296       11.97041003428860       -1.26532565800538
C           15.34672767012644       10.80948741520282       -1.92581922379208
C           14.18818390659927       10.14528978946260       -1.58923767605032
C            9.78001322036340        8.30850840725748        0.28778748842395
C            8.65649474906377        7.51836247649871        0.49095885110260
O            7.79699458524356        7.82543820018397        1.55861475055035
C            7.73690458592164        6.88660192973517        2.56705620018632
O            8.50395956741491        5.95160140096195        2.66801745776869
C            6.65819388062232        7.07745501048969        3.56495447985020
C            6.57464353455712        6.25269740670430        4.67551523920934
C            5.56334651417829        6.42182727030888        5.59481993040473
C            4.62361618585639        7.41581416789790        5.41239570995986
C            4.69635900082856        8.23953328926680        4.30759265743780
C            5.70749962295595        8.07043390054190        3.38826924989686
N            7.10737155251479        4.43021194201874       -0.86326268937421
C            5.87573657680898        3.97560773801157       -0.54269997083106
C            5.22828085288529        2.78186159803164       -0.88723814018515
H           -1.01877347079985        1.93374000383016        0.30659681140890
H           -0.65392114774523        1.00221555787128       -1.17579216265209
H           -0.36953674033496        2.76513947737312       -1.13864049077221
H            3.28597257383150        0.60223186545463        0.10171165377809
H            3.42274884539842        0.60031944582167       -2.76342242851662
H            7.47036660105083       -0.74614347070272       -1.04001264585680
H            7.98845924934211       -0.41408845277893       -2.68901396574061
H            8.53618235726650       -1.88184537209263       -1.87109756988163
H            5.76285357738780       -2.60805989725032       -0.59510286027207
H            6.79681085727152       -3.78305512094545       -1.41210675240993
H            5.12646889933072       -3.54727750346494       -1.94045769006017
H            7.10203290103896       -1.81511960689494       -4.60667883866399
H            5.92720066630485       -3.08771395681336       -4.30375016061592
H            7.60914368985452       -3.30703734192301       -3.80428888219432
H            2.31911414613020        3.28498107841249        0.72303754314644
H            3.42720527592935        5.39636111808064        1.35700212270845
H            9.17467315624894        5.31714573740418       -2.02467266016131
H           11.17391102568838        6.72257414793081       -2.31861201429615
H           13.07562044555407       12.17591510355979        0.84599555279866
H           15.14923716331180       13.37191603274503        0.24893390750541
H           16.59942867460006       12.49062560608123       -1.52915180471745
H           15.98252501139097       10.42210632179167       -2.70513344421526
H           13.90715739282871        9.23816335001903       -2.09628179265724
H            9.93911075475064        9.13903400783104        0.94807449223115
H            7.31120591915189        5.47749402412878        4.80189687435798
H            5.50574522246638        5.77685032541449        6.45651045213839
H            3.83244743187018        7.54789159081773        6.13198181006747
H            3.96059304237561        9.01377939723498        4.16260389380858
H            5.77130783059098        8.69931185096424        2.51653066355727
H            5.73301272791784        2.05613937713225       -1.49469932641119
