38
 energy: -6.187171761791 gnorm: 0.000968463964 xtb: 6.5.0 (97a52f5)
C            1.43221158115889        0.29036017443196        0.51806580746580
O            2.82053056578999        0.40460324621060        0.55286515455294
C            3.31407120731871        0.50147999733963       -0.70973716437032
O            2.64216486384192        0.48697077676764       -1.71435064912509
C            4.81388646174847        0.62364810037326       -0.83472187728349
N            5.33767133358359       -0.60200156909493       -1.50480997067519
C            5.18582999844587        1.90017381950261       -1.59167663754697
C            6.66348804425321        2.11644852894026       -1.70257047689551
C            7.32904528267310        1.85970935566068       -2.90999264080650
C            8.68934189088942        2.01933365490232       -3.04073501091245
C            9.42535200123284        2.44979281608449       -1.94068684141322
O           10.75886983724279        2.70169700475086       -1.73842554032171
C           10.86527473018202        3.09522068213429       -0.44677779220153
C           12.11726041704107        3.45367476011029        0.17275255981934
C           13.30974212849833        3.40909100883289       -0.53921912357447
C           14.47486716249260        3.75826213589696        0.08566494372493
N           14.56131861965809        4.14881509772148        1.35293029844975
C           13.41644782464821        4.18674495587113        2.02646905917545
C           12.19743102736008        3.85836607063006        1.50062617186529
N            9.67231490992995        3.11604998725344        0.20405356568457
C            8.76373251175642        2.71660662858263       -0.71068116113771
C            7.38356897728579        2.54364773742124       -0.60216670201127
H            1.06616402305208        0.19848348477243        1.54410882279931
H            1.16707729896743       -0.59786544827167       -0.06257615416142
H            1.01708564531026        1.18442945943899        0.04441984299985
H            5.23553798269425        0.67345547654700        0.18194086839667
H            4.90085696994839       -0.69446807844885       -2.43000040726690
H            5.10210971229544       -1.44181188940786       -0.96105178484736
H            6.35840400082410       -0.56164768656556       -1.62282201456612
H            4.72629911978852        2.76745727667365       -1.10521086538176
H            4.73946466410240        1.85389089656916       -2.58963501525362
H            6.75470508114531        1.53174967458606       -3.75951891940759
H            9.19520018589372        1.82096647768929       -3.96941853249969
H           13.29553660699047        3.09955573889062       -1.57167962010144
H           15.40468615894726        3.72601480185966       -0.46423162678045
H           13.48484823063083        4.50074302096236        3.05834276464084
H           11.30034556110626        3.90663738432375        2.09489562604417
H            6.89641738127407        2.74737444005840        0.33356104292229
