107
 energy: -22.032396060852 gnorm: 0.000662263159 xtb: 6.5.0 (97a52f5)
C            1.43675387862151       -0.27215484968785        0.63416475603968
O            2.82552924158611       -0.14590682827763        0.58340595594915
C            3.33925418536629       -0.96746795325030       -0.37648569597739
O            2.67895405566031       -1.68913110222457       -1.09172108728340
C            4.85893157976014       -0.90452556471627       -0.53430116109197
C            5.52805593710047       -1.12031289045496        0.82364680302184
O            5.41481080657057       -2.19912763385807        1.36303526676049
O            6.22464370399321       -0.06563606417929        1.33751319092735
C            6.77936318724309       -0.40810565315249        2.57127645920642
C            5.26522212915765        0.44302247600895       -1.18019661877338
C            6.02207303287263        0.11639052665411       -2.43644187474989
C            6.59610565962882        1.03306411133331       -3.32850458853350
C            6.42745456249877        2.41256675640793       -3.12672066640457
C            6.33243481337221        3.62908981568053       -3.05406815907412
C            6.28916927818642        5.03359227456019       -3.07576958005356
C            5.66464274327368        5.75842774213391       -2.06490193992005
C            5.63771577006667        7.13052864768236       -2.10101496557572
C            6.23513385002823        7.84097498906980       -3.14827716598627
O            6.16762241895598        9.23550462635055       -3.10464442768424
C            6.81280623379997        9.89350912811163       -4.17126745656072
C            6.85846422448503        7.10583917140486       -4.16264948302379
C            6.88325372456266        5.73371757801301       -4.12286452286247
C            7.29433510740435        0.55508834249406       -4.44123654111597
C            7.75127574590097        1.57133883968681       -5.42705619192544
C            8.76875421184638        2.47662334571292       -5.11202096214471
C            9.12879817929699        3.46388822549693       -5.99022079879122
C            8.48192152878690        3.60970882274050       -7.22340654246624
O            8.91017834622708        4.64132660683952       -8.05709811758263
C            8.23298674704827        4.72231610047330       -9.29048557327171
C            7.44932971789225        2.71379083238578       -7.52902182370396
C            7.09248876004930        1.72413010869297       -6.65024920911026
C            7.45967127724419       -0.86458377125817       -4.64067487883401
C            8.30230394843471       -1.40379930979261       -5.67150710914347
C            9.22541360922530       -0.56028740415768       -6.47715034377249
C           10.37599639167019       -0.01777329461006       -5.90250400548766
C           11.26375018004195        0.71139717981544       -6.66110408503553
C           11.02862412761228        0.90630302411053       -8.00721317153023
C            9.90638158172219        0.36112817402178       -8.59739358024265
C            9.01638258516531       -0.37032691253971       -7.84416415895876
C            8.33910959439998       -2.78222769342642       -5.89873274338433
C            9.19742785096318       -3.34351575866041       -6.97649908906005
C           10.58786003797623       -3.31669590818203       -6.87426830992745
C           11.37662044888105       -3.84284026914079       -7.87230666596232
C           10.79476054396882       -4.40848683339873       -8.98880316412195
C            9.42000587122137       -4.44652169113967       -9.10591655241358
C            8.62762162061090       -3.91984937108251       -8.11107781545757
C            7.57070515964342       -3.66686057940604       -5.10203405047059
C            7.62550365450953       -5.12929230617686       -5.36759871078914
C            8.78224363937996       -5.85830670829315       -5.09486524099242
C            8.83478692108446       -7.21166431616285       -5.34181024257165
C            7.73553006832016       -7.86316046134237       -5.86363121887945
C            6.58200799637449       -7.15728037862944       -6.14003086845031
C            6.52573923621846       -5.80341742487383       -5.89647209465062
C            6.80096230566921       -3.17650007118522       -4.04892236831635
C            6.01993180462941       -4.15194155488758       -3.24238344972353
C            6.64036573721867       -4.92543839489110       -2.26059036614675
C            5.92226415650832       -5.85143641375736       -1.53857152171705
C            4.57575418285836       -6.02976816318875       -1.78590699002674
C            3.94800201444079       -5.28329836447008       -2.76299340003544
C            4.66139627364096       -4.35679953196370       -3.48907252875564
C            6.77218426769986       -1.77039427428868       -3.77950224029827
C            6.08275496203229       -1.23880814626115       -2.65648454483285
C            5.37483199269445       -1.96269723380382       -1.54226173488133
H            1.04102242585922        0.39574469670141        1.40253356449515
H            1.17615278093510       -1.30501062664106        0.87635055871401
H            1.01223170416146       -0.00687467942756       -0.33682738749551
H            7.33074668149796        0.44695920867840        2.96824779865122
H            7.45764128177160       -1.25432944763810        2.44128957095445
H            5.98018404818220       -0.68278668904064        3.26328586519992
H            5.88751532519259        1.02942259227314       -0.49780736982424
H            4.37839884040037        1.04118503710572       -1.41057613534406
H            5.20353982940257        5.22651009837721       -1.25072612045737
H            5.15633795188401        7.68876068355934       -1.31791156934126
H            6.71276949384181       10.97021847835020       -4.02740466248734
H            6.34339414036386        9.61905411624510       -5.11674570137536
H            7.87271974170376        9.63645989713468       -4.18133046506369
H            7.32560891889269        7.61794378409914       -4.98366957799130
H            7.37184740794187        5.17682827757121       -4.90372224424194
H            9.26765437192622        2.38603565064195       -4.16257873906338
H            9.92006421226375        4.15047957080527       -5.74731119494192
H            8.65359426691516        5.54872849154676       -9.86495343897979
H            7.17258766833612        4.91436983290669       -9.12099221035795
H            8.36915139558283        3.79686395312657       -9.85185200380608
H            6.92699763429938        2.80108104906855       -8.46381340373292
H            6.29132455452192        1.04689493560510       -6.89170049692548
H           10.55835466161412       -0.17848928832792       -4.85418031864611
H           12.14326667249864        1.13246342423334       -6.20248908019628
H           11.72155788400109        1.48285139153482       -8.59767845401010
H            9.72704149208137        0.50769364305999       -9.64975226671464
H            8.14498442488904       -0.80525656859276       -8.30178941051804
H           11.03707615896852       -2.87746680858599       -6.00053606821475
H           12.44994413549368       -3.81292382325690       -7.78120373909582
H           11.41357577619677       -4.82096888955619       -9.76868672184978
H            8.96585852543192       -4.88956352100558       -9.97694709657814
H            7.55520474818351       -3.94798069027888       -8.19729688538530
H            9.63619390404845       -5.34547112398026       -4.68755372973807
H            9.73569621330958       -7.76261286776089       -5.12713541869273
H            7.77776787917712       -8.92281711057567       -6.05517793798589
H            5.72392824104624       -7.66639666794409       -6.54712853505278
H            5.62983462261621       -5.24846886272256       -6.11380816608827
H            7.69182602629006       -4.78684941891400       -2.07682369657929
H            6.41209891301521       -6.43815823160704       -0.77909128870389
H            4.01482354797004       -6.75323018308683       -1.21725705654337
H            2.89746802893787       -5.42458818400524       -2.95638649378418
H            4.17782923781153       -3.77471780141934       -4.25461108209269
H            6.05190970446069       -2.66088465729536       -1.04185721947704
H            4.52984712256073       -2.53673903615621       -1.92964400390412
