99
 energy: -20.828411420900 gnorm: 0.000315444823 xtb: 6.5.0 (97a52f5)
C            1.26531728706992       -0.23786100106205        0.02902578639053
O            2.65825618095435       -0.22388649039121       -0.05813935532244
C            3.17978392543654        0.65982478645695        0.84183488626327
O            2.52446393099434        1.33793171946861        1.60227679406325
C            4.70665735451343        0.76807580473385        0.86404252415159
C            5.30783547178239       -0.18112649486173        1.90130910829393
O            4.63145643065072       -1.03609999193632        2.42988058968223
O            6.63886421520149        0.01273516808722        2.13726473245927
C            7.10660479262362       -0.91174795381685        3.07296233051218
C            5.14356551065509        2.22775057719458        1.13988814695065
C            5.93029449292638        2.68394328410750       -0.05598349361360
C            6.50068118093645        3.95038118437286       -0.24812654057437
C            6.32454410288390        4.95612714620569        0.71978429846705
C            6.23556438666322        5.89953198196530        1.49017366844108
C            6.20532878343124        7.05546537682464        2.29718956562815
C            5.47524338917438        7.09836503627906        3.47981989267925
C            5.45966719017703        8.23977215518523        4.25356767350154
C            6.17195912641858        9.35392712864085        3.85840447448509
C            6.90039313496855        9.32637928691730        2.68668726670067
C            6.91660287518069        8.18675307199494        1.91193107696102
C            7.21315440347968        4.20642287446446       -1.41935605513550
C            7.69291618986552        5.60428373542280       -1.60158530433913
C            8.77875154418068        6.08926119479859       -0.87214000832035
C            9.16263207931757        7.40777956143258       -0.97260217729939
C            8.46166945051975        8.27186689955773       -1.78914523728094
C            7.37158945492897        7.81527122808773       -2.50239457458429
C            6.98558256647146        6.49688757669170       -2.40637770913910
C            7.39220186356962        3.17060849617725       -2.40561357693441
C            8.20644500945080        3.35120837625405       -3.57620374862154
C            9.05396230553576        4.55319015216462       -3.80209098542931
C           10.27150059538686        4.70085637973877       -3.13574936607463
C           11.09618472853069        5.76946820362574       -3.40668536842164
C           10.73010258965399        6.70460739937344       -4.35378231391193
C            9.53873927574135        6.56518609150572       -5.03672599730163
C            8.71080464590897        5.49825742701280       -4.77032080828708
C            8.27813799820590        2.34730437121124       -4.54380191707587
C            9.11522607835565        2.53443266846944       -5.76009149871608
C           10.50618705312835        2.47456551450505       -5.68732800887730
C           11.27706764808844        2.64646811934678       -6.81488462862554
C           10.67585289272111        2.87840859914380       -8.03558761706477
C            9.29970016774048        2.93667968047288       -8.12699089848563
C            8.52509942673414        2.76624993372846       -7.00164052052074
C            7.57606201888682        1.12882821680119       -4.37709627283192
C            7.68271521810527        0.07384990811090       -5.42096332293191
C            8.83762990624072       -0.69846120200763       -5.53466828855211
C            8.93974613378278       -1.67071295274518       -6.50417351005725
C            7.89317405940568       -1.89043264979511       -7.37708160657831
C            6.74248532202362       -1.13415965611070       -7.27915217504415
C            6.63622604194479       -0.16027626237889       -6.31168115715924
C            6.82743659748296        0.90126744730823       -3.22590713148776
C            6.14829255329624       -0.41569564009090       -3.09208360060545
C            6.83766915706165       -1.52392924675160       -2.59831069376595
C            6.22198346155921       -2.75190334845703       -2.50998239460487
C            4.91230237204887       -2.90078743003005       -2.92069842506363
C            4.21906816989396       -1.81865452630542       -3.42527248917938
C            4.82951351081310       -0.58808686701715       -3.51501338882968
C            6.74317062546752        1.91384441284159       -2.21631060867698
C            6.02813476878333        1.69878202930521       -1.00765787441815
C            5.30590907421344        0.46614063129759       -0.53264947031586
H            0.86530944775992       -0.96623957387661       -0.67963447983480
H            0.87592636336768        0.75490414782674       -0.20710782403924
H            0.96915223374269       -0.51413462844889        1.04347542319321
H            8.17164212795470       -0.74278865014533        3.24570353526724
H            6.95380855956148       -1.92367449960135        2.69147859339413
H            6.55962973219371       -0.78876822385821        4.01022065530546
H            5.75677487951077        2.28038498399346        2.04460741973100
H            4.27052825044679        2.86884727884699        1.29504192452005
H            4.92125149047918        6.22683323883160        3.78362068574301
H            4.89016425420062        8.26170494403606        5.16821840724573
H            6.15934731620151       10.24496780233920        4.46450791873719
H            7.45681856514165       10.19578118043836        2.37701538820247
H            7.48140752210499        8.15645676750288        0.99611955273836
H            9.31197259585377        5.41512638619015       -0.22414445155748
H           10.01119766404724        7.76524555022342       -0.41281192372119
H            8.76486514487367        9.30291076032470       -1.86934031773658
H            6.82142529433959        8.49160598822026       -3.13556749522924
H            6.12823288494194        6.13879503257876       -2.94987688853278
H           10.55711707244861        3.96303075750577       -2.40623509354557
H           12.02919780737830        5.87596957417342       -2.87818326877134
H           11.37562675261790        7.54194882152913       -4.56208569025713
H            9.25683024686679        7.29162382166712       -5.78105302935087
H            7.78684329231462        5.37835748826011       -5.30887569261159
H           10.96976389480349        2.29112554584582       -4.73354058522361
H           12.35137562995888        2.60029924001025       -6.74396982525846
H           11.28078145961552        3.01336009319946       -8.91716906256389
H            8.83072690154825        3.11646081738863       -9.08042486321069
H            7.45175281600589        2.81173308305354       -7.06671613872954
H            9.65028542743834       -0.52211667005251       -4.85155917307739
H            9.83836949166636       -2.26037423686692       -6.58192543141517
H            7.97484572272489       -2.65166801492064       -8.13552515235194
H            5.92636060643042       -1.30529060148983       -7.96172738797772
H            5.74338338386929        0.43537695571803       -6.23402124054468
H            7.86098312172354       -1.40307374260432       -2.28702299640193
H            6.76360968531874       -3.59836867005892       -2.12109524236963
H            4.43182683893457       -3.86287708131692       -2.85012532622918
H            3.19859974867676       -1.93757801094413       -3.75002192790390
H            4.29506426133203        0.25809092034937       -3.91128858823025
H            5.99425448631750       -0.38111087121282       -0.46729216081808
H            4.50668630415154        0.19521317193619       -1.22713094213460
