45
 energy: -7.715685791644 gnorm: 0.000924836789 xtb: 6.5.0 (97a52f5)
C            2.57428353443881        1.29869086074935        0.62053513743258
O            3.81430264690082        0.90757741249357        0.11614770947321
C            3.70132923703212       -0.28038489956544       -0.54452840663226
O            2.66945167260718       -0.90216965928642       -0.66994620534406
C            4.98269675348490       -0.83081210831591       -1.16310781489130
N            5.01359669482859       -0.64938456946650       -2.58140566282315
N            5.95478294595080       -1.20614292672321       -3.16935814957264
C            7.04021891522286       -1.72235880509165       -2.38548992278613
C            8.15681820424930       -2.26634153846491       -3.26975132551417
O            8.97213066586346       -1.50061125148377       -3.73410298006345
O            8.14770455221553       -3.61196705053823       -3.48720478755342
C            9.21073835169288       -3.97251026444282       -4.31528225374647
C            6.51157578161619       -2.78183224392449       -1.32399093602198
C            6.54545482955778       -4.36535716801522       -1.08935604545747
C            6.71540648137163       -4.50534044391947        0.46935564394680
C            5.38983452047346       -3.87873838567628        1.03074537232187
C            4.49623514294184       -3.63632591892212       -0.23199118401216
C            5.02471003401722       -4.78474489736546       -1.20192810164987
C            5.03768884151517       -2.41444815756297       -1.09611508965566
C            7.51095004414561       -0.52726505039117       -1.45590260516994
C            8.88743782702796       -0.65071976323465       -0.81030325674361
C            6.89995447504455        0.85414175245099       -1.61284428068838
C            6.27210135656454       -0.11783370450630       -0.63571294017432
H            2.68672136118744        2.24883930310424        1.14760916263499
H            2.20884339591276        0.53349620581810        1.30930682326057
H            1.86973419484781        1.41480447817491       -0.20627882024642
H            9.18089420471077       -5.05039543511100       -4.48872247271209
H           10.15172854983467       -3.70137327918933       -3.83114116542210
H            9.12144258626295       -3.44156866212998       -5.26582984006875
H            7.03183268243042       -2.43389239612578       -0.41661970551801
H            7.25384832572853       -4.91946072386135       -1.72238540332534
H            7.61170365286757       -3.99448620889844        0.83534353789795
H            6.81126158038217       -5.55909605071153        0.75024181856304
H            5.57809256432645       -2.93040502366520        1.54329353768946
H            4.89658997444209       -4.54320723502126        1.74751350327768
H            3.41117237602293       -3.62684861898833       -0.05123292295667
H            4.63788525914993       -4.71614931064704       -2.22254272572434
H            4.83500418894459       -5.78639491151847       -0.80653905740495
H            4.53832190446957       -2.62390457238783       -2.06362656614182
H            9.66372664441527       -0.59325393927732       -1.57273655899327
H            9.00322891527538       -1.59908159088394       -0.28818308405744
H            9.05788534356474        0.15092760950651       -0.09287659177999
H            6.37246390325594        1.06874531687468       -2.54099059455014
H            7.45141262438342        1.70857369097576       -1.21967136530379
H            6.36412225881819        0.03682013517028        0.44413657620776
