78
 energy: -15.180024587947 gnorm: 0.000636859729 xtb: 6.5.0 (97a52f5)
C            1.57044895517651       -1.32545337143101       -1.07582200695129
O            2.61552354576689       -1.10177087379595       -0.18136295399758
C            3.77854201177693       -1.63104499385806       -0.67249229554378
O            3.88392781599518       -2.17017893605754       -1.75712749441209
C            4.98348005965575       -1.46900188415303        0.18470257786984
C            5.31359139216137       -2.16770396769456        1.32041831670525
C            4.54943976854035       -3.24865437216575        1.93082894795617
O            4.99390787443992       -3.83758145258257        2.90532829568340
O            3.34191409135587       -3.56247302477075        1.35918700286128
C            2.73381623346614       -4.61196007248893        2.04721112496327
C            6.72343327673438       -1.77102192432741        1.74321243586418
C            7.71786555870200       -2.83224438386177        1.27787699840340
C            7.91504789873549       -3.36927410927847        0.02697280755983
C            8.95683181978482       -4.26543869405880       -0.16048899958169
Cl           9.23957134128845       -4.91691298925197       -1.73235884959326
C            9.78550906119830       -4.62354924897919        0.89859216504525
C            9.58735944593390       -4.09124113312800        2.15267660841739
C            8.54799322513121       -3.18932032944287        2.34329247214188
C            8.11786982151580       -2.47269809207039        3.53881865757485
C            8.68212468840737       -2.45132925969786        4.81613576087229
Cl          10.19911802429336       -3.21412169703316        5.10659489321584
C            8.06173189060455       -1.70673064639632        5.80267665710819
C            6.91165848119242       -0.98267026496733        5.52201195652735
Cl           6.18735245193490       -0.02611350813050        6.76007756494546
C            6.36742341535965       -0.97561763722149        4.24128397424102
C            6.98719450094905       -1.69906243829164        3.24617457518128
C            6.97849144359914       -0.39057392106785        0.98404619439433
C            6.59017929283329        0.82340649231624        1.78850428030966
C            7.37218429080249        1.49758953416914        2.62521384522862
C            6.91189448252790        2.68314684839284        3.36703202156847
C            6.55724967933768        2.59437802586580        4.70959135599379
C            6.12081283540278        3.70446121046514        5.39695178193382
C            6.02882326931502        4.92287822417577        4.75663522114595
C            6.37227955832364        5.02843007361672        3.42448474184762
C            6.80923340284639        3.91921738025406        2.73428529341137
C            8.38354142826990       -0.27298463911935        0.40700530775659
C            9.47430795373960       -0.44285592103488        1.24780744624269
C           10.78365747397274       -0.41999731248850        0.80157691264014
O           11.87670884630367       -0.61438557826360        1.65752662269268
C           11.55778284226858       -0.81965909710874        3.01513424289920
C           11.00838080290217       -0.19626911797086       -0.58097241926793
O           12.27287240767406       -0.14357837607121       -1.19254677454575
C           13.34788647223337       -0.57351771723647       -0.39903198012128
C            9.91010074669511       -0.01421329661954       -1.40890202306014
C            8.60041803932702       -0.05401976147845       -0.94893851482640
C            7.47471364821866        0.09058017723768       -1.94158083123149
C            6.09354952351449        0.27787216622666       -1.30780247047537
N            5.96740764426258       -0.53702178443102       -0.09832809705870
H            0.64957240690425       -0.91014667146191       -0.66036985490753
H            1.45637312977127       -2.40116705595219       -1.22910058476987
H            1.80066850725936       -0.84105093103577       -2.02758156436757
H            1.77528546165584       -4.84106221144777        1.57662793356188
H            2.57534604756973       -4.31521723590421        3.08651257548597
H            3.38407255615762       -5.48898173307910        2.01109106908883
H            7.28676046256452       -3.08181740112422       -0.79622625687909
H           10.58705158830943       -5.31931530552411        0.71827638161334
H           10.22247324940572       -4.34989514365200        2.98011667131063
H            8.48444419278844       -1.67352099896704        6.79103667320437
H            5.48717602826865       -0.39617817877156        4.03037339464990
H            5.57455936560344        1.15478292698869        1.67029884525352
H            8.38815031671352        1.18393093872063        2.77682102017428
H            6.60702452218380        1.63952144184800        5.20380158311388
H            5.84653345698723        3.61915405125457        6.43549559377012
H            5.68535697051406        5.79090108962198        5.29537571096633
H            6.29788456599023        5.97947569360645        2.92340650013562
H            7.07779413230618        3.99637775640016        1.69471738674035
H            9.28207358345912       -0.65366932219249        2.28082474662564
H           12.48643673305303       -0.95712594303045        3.57032797038398
H           10.94874887496112       -1.71763215810595        3.12053803393793
H           11.03402751778252        0.05153528008981        3.41049485140522
H           14.25132018026330       -0.60235752860775       -1.00994085481706
H           13.13397548761756       -1.57004757981693       -0.00878112392324
H           13.48413551105515        0.12656590988666        0.42701438537757
H           10.09404254464440        0.14521951747438       -2.45559962803303
H            7.46386254485002       -0.80128439193881       -2.57870453455297
H            7.69916667621279        0.93018918032282       -2.61058959840476
H            5.29193347096897       -0.00371514662237       -1.99881859706037
H            5.92497717972539        1.32347684631692       -1.03367207959583
