66
 energy: -14.356458852404 gnorm: 0.000494419297 xtb: 6.5.0 (97a52f5)
C            4.29003041148860       -0.49661301372925        0.03230653503126
C            4.23737817781526        0.81262197914179        0.31546025186973
C            2.85479247889833        1.18687043948232        0.29589130320174
N            2.08931884398069        0.10074126935376        0.03592284923946
C            2.93767067573806       -0.94027524876099       -0.13461062417176
C            2.58713733135188       -2.29983287580255       -0.42215616670767
C            3.58725258617685       -3.20632679287096       -0.94424802169158
C            3.37822053588749       -4.42717483767064       -1.54847330309556
C            4.56281099444980       -5.11232795752448       -1.91755675752552
C            5.69895269640679       -4.43107351219797       -1.62933884627486
S            5.31069391456863       -2.90345114312460       -0.93487348548929
C            1.27505852736440       -2.78343937075755       -0.12431505388327
C            0.92823977876990       -4.13726430270652        0.09837952279922
C           -0.40724234702892       -4.19904786732841        0.35562314222419
C           -0.93747870847318       -2.88782440842788        0.30955553133896
N            0.12354676383428       -2.04439580257245        0.05042053014776
C           -2.30354602031886       -2.52918311782263        0.49952334631699
C           -3.30060680391251       -3.56956552462548        0.63155653253560
C           -4.67013398704708       -3.45845465574167        0.51720150595847
C           -5.38339567963074       -4.65359638929162        0.78726883902146
C           -4.58613679953114       -5.71033155963413        1.08019769046146
S           -2.93111793746748       -5.25016314411115        0.95349522136938
C           -2.67744832758810       -1.14795882646867        0.53712031645405
N           -1.95670515131366       -0.11481340230270        0.04499451585339
C           -2.75000882429408        0.97897545910212        0.12368316185296
C           -2.46415720525415        2.27808713567782       -0.43393170385610
C           -3.54629004369670        3.07828700594250       -0.96260608409911
C           -3.46882971819145        4.16341138498558       -1.80749231228624
C           -4.72160723184035        4.73964111014123       -2.13398564639369
C           -5.77754190238960        4.10529718730810       -1.56750693526509
S           -5.23436327500990        2.76011775350752       -0.64189326039905
C           -1.12758326233370        2.77477022462579       -0.38862202619983
C           -0.71437271304453        4.12081190321187       -0.53106427399084
C            0.62106492998296        4.18876528094083       -0.26028351460506
C            1.07534764056794        2.89175871100311        0.07987609089099
N           -0.00957940034303        2.05045794062669       -0.03477245026888
C            2.40523118405629        2.53464614076259        0.46184549379827
C            3.32029537029346        3.54904926373707        0.93700487606881
C            3.01083683582995        4.80605052075078        1.40966370786314
C            4.13404047613841        5.60096387507728        1.75020335232785
C            5.32193599554594        4.97187956121546        1.57344566897379
S            5.05929779809764        3.35944398828843        1.02398583839128
C           -3.98029005507830        0.64494483604451        0.78010019859717
C           -3.92476570214506       -0.66826085766736        1.05602236520874
H            5.18647143226066       -1.09093345201743       -0.02174563443134
H            5.08812982085435        1.45330920948720        0.48928381840692
H            2.39661704034141       -4.81501169701810       -1.77028095046402
H            4.55825769094958       -6.08802462205939       -2.38206509977672
H            6.70005508763980       -4.77001978278719       -1.81800657282497
H            1.60897657166405       -4.97062891632644        0.13656439822912
H           -0.95218313799650       -5.10376653501892        0.56556121739649
H            0.06094044045722       -1.02371035261118       -0.03596536875074
H           -5.16775686678667       -2.55451533569523        0.20448911475435
H           -6.46219173196764       -4.71323411478301        0.76486234010867
H           -4.92021030505819       -6.70213253195940        1.31986434509776
H           -2.54641717290382        4.50662251836606       -2.24753573282434
H           -4.82338701261040        5.60136628433762       -2.77811326214295
H           -6.80939361701612        4.37869873154582       -1.68255653071874
H           -1.34599297925656        4.96824985277907       -0.73225406450948
H            1.23020594398882        5.07223279795021       -0.34869380296486
H            0.00324671173468        1.04000291049195        0.14657140455634
H            1.99894384658627        5.14945849035255        1.55420889258675
H            4.04897255716825        6.61438366938703        2.11552732633568
H            6.29101917624031        5.39217924136642        1.76550554357042
H           -4.76545776918334        1.32110250142995        1.07110904945576
H           -4.64877857837231       -1.22570722700008        1.62646164733276
