78
 energy: -15.233337164366 gnorm: 0.000944792500 xtb: 6.5.0 (97a52f5)
C            2.63442794047558       -2.48765368853977       -3.53130293105070
O            3.72303461891907       -1.76119234707991       -3.05115315974787
C            4.04538831936807       -0.76048852594110       -3.92778469619387
O            3.49150798225092       -0.57144983355684       -4.99381023839275
C            5.18921190573668        0.10528789277751       -3.54187195864229
C            5.26323664421935        0.98653930553498       -2.49094186954667
C            4.19901660461264        1.31201273030326       -1.54870951194728
O            4.44599939536414        1.97265425569405       -0.55017546495119
O            2.93834091389502        0.86067444319126       -1.85161934202571
C            2.03145058237615        1.24797247364839       -0.86563075009740
C            6.68063130304284        1.54253992423067       -2.41047026677621
C            7.45977518523067        0.86048653297747       -1.28914902235435
C            7.66438387401213       -0.48048942342855       -1.04559804927508
C            8.46563978238201       -0.85314920408871        0.01610371694742
C            9.05362652161197        0.10467292246098        0.82546953437206
C            8.84719093602890        1.44756178732463        0.58905586114771
C            8.04694463821136        1.82914774131033       -0.47568834768254
C            7.64822638600877        3.16257770618288       -0.95201215878137
C            7.99011460680265        4.42526573435444       -0.48768766865885
Br           9.23200967237322        4.65422029770500        0.91034811146983
C            7.43179207114342        5.53131983471337       -1.09766293117898
C            6.55206686187973        5.38838174310893       -2.15799823829303
Br           5.80953505106560        6.91209766582293       -2.98272201446276
C            6.22190284522884        4.13843344050789       -2.63598448696979
C            6.78306579522331        3.02212213600058       -2.04453763914731
C            7.30045010726821        1.20755513928711       -3.84178542023425
C            7.17860185965645        2.35774275459682       -4.80183352850411
C            6.07245886631732        2.57314602974459       -5.50670382483882
C            5.81767209395256        3.71424174516231       -6.37470229975894
C            6.67733855890956        4.81363470455632       -6.43485525325981
C            6.39131174019263        5.88581338918023       -7.24702457962844
C            5.23920286231218        5.88638230488580       -8.01689943329119
Cl           4.88071919055945        7.23336283609384       -9.03269317220892
C            4.37434205307009        4.80503163988984       -7.96725538709175
C            4.65923543899771        3.73378257316089       -7.15412013836434
C            8.73576577360707        0.70986789524864       -3.77721582390448
C            9.69760835913220        1.52733864693862       -3.20320656670010
C           11.01579630312354        1.13624661020184       -3.04288813855089
O           11.97495996429529        1.95421575499543       -2.42977706951317
C           11.48208764438620        3.15692759215165       -1.88220150338727
C           11.39068202878475       -0.14739235755522       -3.51960590669016
O           12.68334703636143       -0.69305887398517       -3.43509670549942
C           13.60121825914127        0.03658635843994       -2.66385708196197
C           10.42258095315747       -0.94086317130867       -4.11851225627059
C            9.09999770903752       -0.54265113827319       -4.25699427083158
C            8.11017561598616       -1.48063936588888       -4.90036850319001
C            6.79480297295797       -0.80873588691694       -5.30504748811731
N            6.36775342112524        0.13204589742538       -4.26729185799575
H            2.38030249578041       -3.26909132730226       -2.81165634501523
H            2.89608181131198       -2.93810111244429       -4.49157658943482
H            1.78455145566745       -1.81352496241361       -3.66166747900075
H            2.33464363747073        0.81481937765461        0.09036718484088
H            1.03491017597861        0.89113645906320       -1.13453297086040
H            2.02692221705558        2.33778493490727       -0.78929922675078
H            7.20624531778335       -1.21257791838245       -1.68662885827479
H            8.63588929030871       -1.89863284052732        0.21372610368667
H            9.67757114085235       -0.20188124205567        1.64876088170188
H            9.29568041697884        2.19803774296792        1.21406884505512
H            7.68836260992539        6.51830722120215       -0.74859685081995
H            5.54851803092859        4.04010156717130       -3.46875900738811
H            7.99985427483069        3.04621743340283       -4.85522554557929
H            5.27890358729467        1.85307033943699       -5.41734386732341
H            7.56630893794920        4.83013841597987       -5.83026237587502
H            7.05054459646727        6.73578060180464       -7.29323941234932
H            3.48185777328592        4.82093617415298       -8.56935548359088
H            3.98530421552725        2.89546926232097       -7.11106912146407
H            9.38545193691212        2.48974824017494       -2.84738192842336
H           12.29718689631417        3.65809364281019       -1.35870958727528
H           10.68471958262999        2.94243970652004       -1.16967710536297
H           11.12078075331495        3.80691083047288       -2.68040876075998
H           14.53374932608140       -0.52518607566738       -2.59454027671433
H           13.19014963272850        0.19378426968837       -1.66511103941649
H           13.78607279503734        0.99914351270943       -3.14371357003086
H           10.71968482464697       -1.90967892174654       -4.47628293124489
H            7.90321555979824       -2.29841431728944       -4.20118057456517
H            8.58043842902200       -1.94713100882753       -5.77428604760931
H            5.99474468802366       -1.53943112589744       -5.46258535937884
H            6.90849434031178       -0.25576550318497       -6.24209296876769
