84
 energy: -16.389150650618 gnorm: 0.000455196908 xtb: 6.5.0 (97a52f5)
C            3.76656529122545        2.03186812546643       -4.66034807086044
O            4.76527865176869        1.32627488227283       -3.99153605470732
C            4.69384239971135       -0.00338796442040       -4.30640094735465
O            3.90390406440083       -0.48061369894038       -5.09870943738965
C            5.70847387797556       -0.89461427364224       -3.66156495996571
C            5.71716545412884       -0.98433908451210       -2.29664180431914
C            4.69852109978178       -0.22262487864204       -1.51921809890334
O            5.03482006089406        0.52385701421439       -0.61133838871501
O            3.38520834844505       -0.44058407701252       -1.86230308661867
C            2.54305766684837        0.32372454478178       -1.05807651341375
C            6.72723009170696       -1.81701925739994       -1.52990378417417
C            6.41409812040830       -1.85228033197469       -0.02679634649785
C            5.27799525406684       -2.27967887872247        0.63063822339192
C            5.23620384134170       -2.23657439284573        2.00989649691862
C            6.32256786359055       -1.77386694865363        2.73048899438892
C            7.45875119912264       -1.34211868154467        2.08131638134646
C            7.50794705661917       -1.37459981154202        0.69524772093125
C            8.55499190422877       -0.93926745273157       -0.23786284975535
C            9.78796094902995       -0.31017935974333       -0.01249671133770
C           10.30881925068672       -0.00144348847426        1.34950507123505
O           10.28322676360882       -0.83734435856854        2.23232037344947
O           10.81739500054052        1.26049414760992        1.51046066639034
C           11.27837357667442        1.43638361546843        2.81492751395121
C           10.53857517496419        0.07092829655950       -1.11615993396263
C           10.09391940275388       -0.15643953013562       -2.40201036606554
C            8.87918439339769       -0.77190464229714       -2.61851631454844
C            8.11400240901142       -1.16735546574623       -1.54397314690296
C            6.76056565937106       -3.29706793750818       -2.03770280122469
C            5.41025921203489       -3.98446447868497       -1.97266688076702
C            4.39446890697989       -3.65292577011953       -2.85809088210456
C            3.16187417536691       -4.25892197258262       -2.78328848620316
C            2.92648096906762       -5.22243670912724       -1.81909212646101
Cl           1.37620268608514       -5.97514760301704       -1.70830224950393
C            3.93423771134729       -5.57813326576040       -0.94013293078446
C            5.16518588457809       -4.96540786055884       -1.01925453010762
C            7.39166824365842       -3.50651867912506       -3.37293473176553
C            7.24674796002470       -2.78253143560389       -4.49668950535847
C            7.82856236985670       -3.33157699741030       -5.74109307401375
C            7.89681732388253       -4.70545365796492       -5.97496195265549
C            8.45022516751908       -5.23942211653590       -7.12778857311210
O            8.52844132469822       -6.61866003609196       -7.36426076472842
C            7.93345835637132       -7.44027706039017       -6.38501360310581
C            8.95995015976424       -4.34658280129640       -8.11157665888855
O            9.55002515134253       -4.72663589651883       -9.32535795522892
C            9.55997316402035       -6.10333217131060       -9.59759461666502
C            8.86606400623004       -2.98067069165791       -7.87698121562971
C            8.30453917186791       -2.46643891196208       -6.72273826811892
C            8.11882461412216       -0.99965837927980       -6.52204731329837
C            6.78226180157406       -0.73902670032676       -5.82722996802137
N            6.61166387379480       -1.50041244674646       -4.56203879815938
H            3.90818088918559        1.92496030007335       -5.73819693842340
H            3.82541175318488        3.08618198599028       -4.38114492138533
H            2.79235419697233        1.62677344512085       -4.37705395529571
H            2.79463031977960        1.37981741218253       -1.17936682583324
H            2.67981921263873        0.03250636940720       -0.01423155228681
H            1.50749078687506        0.15166404130775       -1.35951047344273
H            4.43349950171825       -2.62697494646075        0.06238624742390
H            4.35089349641311       -2.56699853728337        2.52784792718743
H            6.28050545431461       -1.75103420237143        3.80708357897853
H            8.31371050199759       -0.99976740901129        2.63372100019884
H           11.68259623402162        2.44578117585846        2.91760000522802
H           12.05919542085582        0.70113347764335        3.02202164849484
H           10.44894758761250        1.29712607460895        3.51179929077768
H           11.47997672891942        0.56652142827485       -0.94995234453567
H           10.69333744630126        0.15689554711475       -3.24087812732336
H            8.50509538066861       -0.92725166651592       -3.61081213227019
H            7.40572929512663       -3.81159156252314       -1.30653471899683
H            4.57808679821199       -2.90651659410028       -3.60874176558410
H            2.37155873707939       -3.98994267201532       -3.46337695824281
H            3.73883368982970       -6.33306057801618       -0.19766708400916
H            5.94572160719400       -5.23945120191203       -0.33065082331210
H            7.96211363259776       -4.41549987603685       -3.46132361305124
H            7.48026930237847       -5.36689594650399       -5.24106791029821
H            8.03732427850110       -8.47944473332384       -6.69969428695560
H            6.87274920387427       -7.20198217631200       -6.29620401777839
H            8.44326583707664       -7.30849190392060       -5.42991683244481
H           10.00872628425551       -6.26854354350498      -10.57813254303250
H            8.53520519869453       -6.47857032007220       -9.59297073378816
H           10.14595332441189       -6.61594675383183       -8.83288964398588
H            9.23526521043996       -2.31157793086850       -8.63231368015709
H            8.16686042262511       -0.47891383639807       -7.48622699425114
H            8.94581969081576       -0.60713255313389       -5.92050315864134
H            5.95084033163501       -1.01492460825562       -6.48356933171247
H            6.66555518333708        0.32766182557288       -5.60633507188219
