81
 energy: -15.851402298356 gnorm: 0.000730093928 xtb: 6.5.0 (97a52f5)
C            4.77955338743994       -3.25735681165157       -0.35177327791632
O            5.55730029893760       -2.17535447596741        0.05987415676077
C            5.31371975357610       -1.89258052291276        1.37774979385209
O            4.56412568762708       -2.53197018339858        2.09204457459762
C            6.08350406367120       -0.74870730542831        1.96176889373690
C            5.88872069923293        0.49776226206013        1.43339185516877
C            4.88818402698084        0.66959993105196        0.34018729790940
O            5.20276874498877        1.19606998126437       -0.71809092066310
O            3.61149459683536        0.23671362752148        0.61633882596035
C            2.77527006486201        0.46779042958124       -0.47435431878319
C            6.64402548954391        1.72222853414171        1.91326601889059
C            6.13758063701454        3.01211421150411        1.24206441918417
C            4.87786496615569        3.57658385162682        1.23135422463620
C            4.67782174674610        4.77201888967155        0.56853607037463
C            5.72553654030235        5.40283084855143       -0.08069024459956
C            6.98791110314951        4.84661618400173       -0.08039548865629
C            7.19181548747798        3.64713932613235        0.58587155880599
C            8.40320578087614        2.83277532414306        0.71986766185059
C            9.67388163343425        3.03027228751217        0.19862390879374
C           10.64502070821865        2.07741169857203        0.42710070000495
C           10.35383570268068        0.93751177320509        1.15672979859287
C            9.08878148950119        0.74044852878905        1.67291454043929
C            8.11134217055387        1.69023217761644        1.46620943970076
C            6.50442094116013        1.91083601387379        3.46027985684256
C            5.06489682861409        1.98432245132640        3.93400157967353
C            4.26791395243710        0.85378210888192        3.98026353881580
C            2.95913763431449        0.92200987392284        4.40396251861751
C            2.40626688729110        2.12988766030365        4.79755315956538
C            0.99933145504507        2.20310432870816        5.27996929000224
C            3.20813012657500        3.26009871733783        4.77346779042342
C            4.51819106861073        3.18886965831194        4.34781566079103
C            7.28209163036635        0.94736300152285        4.29166386548191
C            7.41903766227688       -0.38089277929386        4.13298120766071
C            8.09704199991352       -1.12689742175484        5.21547667607530
C            8.00365847429693       -0.72812820609619        6.54926212182837
C            8.64872076475329       -1.39849840629981        7.57649395881980
O            8.55400687597281       -0.99812166389482        8.91730964344667
C            7.75952255494299        0.14301294916163        9.15715107618021
C            9.43171358037449       -2.54238008724395        7.25214545804825
O           10.15285259359973       -3.32170550278107        8.16938437679196
C           10.09935713697042       -2.89970523313315        9.50791515618177
C            9.49212423073457       -2.94658787326011        5.92404810895836
C            8.83614923087377       -2.26749560806741        4.91361158397920
C            8.83241275486092       -2.76224917811381        3.50567749425334
C            7.46188206373500       -2.51990878309541        2.87293951141666
N            6.99913917564225       -1.11129928190671        2.97406794699230
H            5.03581927215366       -4.13653456851182        0.24357508898491
H            4.97257181414947       -3.45855237474160       -1.40778333396136
H            3.72370911492748       -3.01586510615778       -0.21000983132524
H            3.16334548017078       -0.06641332340698       -1.34446912112291
H            2.74423967108023        1.53862566957495       -0.68735549300031
H            1.77041175406502        0.11013011804203       -0.23943974762608
H            4.06536841228429        3.07418149844559        1.72547749005267
H            3.69578310050928        5.21544607114464        0.55518156304599
H            5.55264492882894        6.33370784983041       -0.59535169302601
H            7.80637132373669        5.32422113254031       -0.58938167794114
H            9.88566217549615        3.91210644406141       -0.37974210145695
H           11.63584503743517        2.21803398635801        0.02741238851034
H           11.11892876442332        0.19661269673488        1.32042952023421
H            8.84667311950359       -0.14709235984099        2.22294097113645
H            6.94256765650182        2.90540512003702        3.64593361026810
H            4.68295654640503       -0.08952934252345        3.67666004244784
H            2.35426344483191        0.03187342670901        4.43070424934114
H            0.37984480721773        1.44400288656705        4.80153627919689
H            0.55868221384300        3.17597217603079        5.06031828295983
H            0.95214932508848        2.04698143795965        6.35807014869134
H            2.79635253268980        4.20198783590216        5.09316236767803
H            5.12511350351345        4.07758312430819        4.32755682706613
H            7.71463599129738        1.37011311154444        5.18245679146843
H            7.38321604030641        0.11417074233681        6.78435104536260
H            7.77723140899940        0.35824299730972       10.22617584733244
H            6.72950035839517       -0.05037714004728        8.85457349345529
H            8.16557921529003        1.00058622855628        8.61906734799383
H           10.71482264509187       -3.56295109734619       10.11716796783355
H            9.06575840152402       -2.93672042481637        9.85658260410362
H           10.47884930646626       -1.87902602462504        9.58131975474809
H           10.06509043111009       -3.82425326084243        5.68760139887248
H            9.09037311015723       -3.82818557213136        3.48235062679617
H            9.61363763632529       -2.24715788181646        2.93614094126465
H            6.70407129887990       -3.14658517739594        3.35390405485171
H            7.47299575404597       -2.80319820575201        1.81453122618216
