43
 energy: -8.631394218431 gnorm: 0.000735374621 xtb: 6.5.0 (97a52f5)
C            2.24927839310092        0.84005673193075        0.98716293598220
O            3.51897082385885        0.76976251109643        0.41547467061090
C            3.84686708582276        1.96884116704671       -0.16081092698096
O            3.13026931944150        2.95256390110956       -0.13737718274205
C            5.17759770826366        2.03035704247243       -0.81308315246737
C            5.41402455274417        2.28643987605962       -2.12911570155720
C            4.37172378946497        2.46789165263501       -3.16716655821416
O            4.61305494120237        3.14338443393041       -4.15136847909970
O            3.18276351424610        1.81843659694184       -2.96923653756986
C            2.30465035584381        2.08098534859929       -4.02019782445086
C            6.83499164558111        2.33463062815980       -2.45031984454897
C            7.46503800100479        2.57026289590739       -3.61109643892920
C            8.97764304376651        2.51140779101376       -3.48465193162367
C            9.34400322946170        3.51366782699952       -2.38819979474522
C           10.22359205926935        4.57369940380735       -2.49074874902936
C           10.43668740108513        5.38658694688694       -1.39573189660155
C            9.77817299793790        5.14577195821663       -0.20458189352803
C            8.89785441230634        4.08913510407184       -0.09337743030187
C            8.67877318332260        3.27113393024465       -1.18360567080771
C            7.74471944580537        2.05805622390940       -1.26371482191573
S            6.64099368627346        1.77868115260488        0.12553468066525
C            8.62735112862637        0.88309208844308       -1.69982265113563
C            8.80341648056536       -0.31967961301589       -1.04533478973626
C            9.64248597922750       -1.27089229148136       -1.58877671889384
C           10.30305494560053       -1.02509157094918       -2.77779893034280
C           10.13221026003386        0.17452756232170       -3.43910326996432
C            9.29362956563511        1.13215887700673       -2.90243918121617
H            2.00853582667301       -0.12243077033108        1.44286465461754
H            1.52009472321968        1.07511412262904        0.20910774631850
H            2.23977188136867        1.62338675564754        1.74777102249692
H            1.37815988892410        1.52501709636381       -3.86003081653758
H            2.76584053572851        1.77105088838320       -4.96100666277380
H            2.09414487844937        3.15259218513113       -4.04991559699830
H            6.93797948418148        2.78399684795988       -4.52313579823622
H            9.50419771340307        2.70420128851248       -4.42940442295174
H           10.73239169256636        4.75583625228408       -3.42132721456500
H           11.12140860223322        6.21509611625087       -1.47071579777170
H            9.95246174632474        5.78751671544339        0.64354700254800
H            8.37878969903070        3.89429544656683        0.82829574872169
H            8.28358888850560       -0.50152996918887       -0.12145181548048
H            9.78300103751325       -2.21162155239014       -1.08186078987947
H           10.95543502647154       -1.77565284750952       -3.19257203736260
H           10.64293042591228        0.37223324827234       -4.36549713299965
