107
 energy: -21.777847004022 gnorm: 0.000162669812 xtb: 6.5.0 (97a52f5)
C            1.34371171538424       -0.80885239527018       -1.04744780058060
O            2.73738125384692       -0.77337847432884       -1.11914631533938
C            3.28900289268321       -1.33418867468907        0.00460003680462
O            2.64179099353002       -1.80055932278460        0.92762423334200
C            4.78017903433626       -1.34813114277482        0.05441158528368
C            5.49060107890371       -0.51364046902515        0.92809098600263
C            5.04023177369096        0.45449105496980        1.84738551396592
C            3.63690584804068        0.90495586202106        1.99906324469787
C            6.17757777064182        0.96771157142854        2.51350445207723
C            6.20390451522336        1.97229190334559        3.57481833739386
C            5.26128046832339        1.97680887117326        4.61847250060495
C            5.06808144646893        3.17564981385558        5.45548969964225
C            4.82562177816141        3.05858397667051        6.82816178208983
C            4.63856324018575        4.17409578102627        7.61154699389860
C            4.68409945335512        5.43385497421943        7.04742602865915
C            4.91501179591201        5.57390441408178        5.69313551850552
C            5.10202447549341        4.46164771948900        4.90547413689492
C            4.45718467343428        0.78113710177939        4.92931308750047
C            3.13727692912132        0.90656471892808        5.37601448872627
C            2.37586602979536       -0.20429739848225        5.65703581004244
C            2.91135930303563       -1.46824352386733        5.50688019885528
C            4.21596186411620       -1.61689421900280        5.07935875765103
C            4.98171360842313       -0.50917866497840        4.79815671101538
C            7.28648138101402        2.98178415061008        3.53938579372857
C            8.00918968533505        3.30858615386712        4.68860965849039
C            9.02375788554288        4.23742833807035        4.64350902369392
C            9.34199506739770        4.85784448177422        3.45168811720817
C            8.64221752874904        4.54538795085083        2.30293762617886
C            7.62675515714661        3.61703402097202        2.34369962988329
C            7.33731481750562        0.33087304431464        1.94486730139593
C            8.75561556279856        0.53506441396980        2.29154350115603
N            6.88995859024668       -0.51194889220972        1.02794562491188
B            7.80324533273988       -1.36275962955116        0.13334383041733
F            8.61305592965401       -0.51987150333985       -0.61674250900798
F            8.55457869045726       -2.21759805331312        0.92924531569157
N            6.93061082271632       -2.19933995625014       -0.81366689411700
C            7.41567386932295       -3.03389426038210       -1.71911093633642
C            8.84751187761971       -3.24202693389272       -2.00214322659890
C            6.28002080908821       -3.65447308788810       -2.35122527737319
C            6.34843802153620       -4.63701911549318       -3.43086961822691
C            5.44972215042388       -4.61805000850650       -4.51244569741389
C            5.29190667578206       -5.79839459017881       -5.38260650740602
C            5.10820976622952       -5.65122118120802       -6.76148138417912
C            4.95472701236831       -6.74919298225761       -7.57630792050790
C            4.97614095542177       -8.02096653875027       -7.03833533257049
C            5.14874521635415       -8.19067502213849       -5.67876348372284
C            5.30189053821726       -7.09605941966007       -4.85972257188950
C            4.65661876223955       -3.41670337999627       -4.82984042306843
C            3.35571237428949       -3.53449038409260       -5.33125035423762
C            2.60131589599180       -2.41909250909906       -5.61325722018500
C            3.12529621581632       -1.15783381158457       -5.40956938303586
C            4.41166130202350       -1.01628247831120       -4.92789853589385
C            5.17075294836269       -2.12851938845694       -4.64639495002153
C            7.42663830647976       -5.65011660164082       -3.37183832315809
C            8.19707224300874       -5.95343260319612       -4.49624601114453
C            9.20603991023442       -6.88702802412615       -4.42908800983786
C            9.47097908703694       -7.53574584490492       -3.23931252384388
C            8.72351075334974       -7.24683262815300       -2.11469711156145
C            7.71334776636682       -6.31393918063587       -2.17762396450908
C            5.11609036259055       -3.14470610640398       -1.73028357569986
C            3.71838773605817       -3.57898691172045       -1.96028527220000
C            5.52816918804177       -2.18860754750726       -0.78116969943292
H            1.00964663320473       -0.25211172000862       -0.16951986364805
H            1.00829970358046       -1.84506081219572       -0.96930356595600
H            0.92380500202164       -0.35613521023441       -1.94800134452087
H            3.20260318305689        1.14444983362367        1.02825867696108
H            3.57055213862044        1.79775519085675        2.62031745099501
H            3.02862464117554        0.12327093639312        2.45455182373220
H            4.79876919538741        2.07771961616393        7.27009583947473
H            4.45690697832469        4.06485608420365        8.66815269998122
H            4.53872624464314        6.30638003600355        7.66304846505750
H            4.94921074572218        6.55673697113595        5.25242194357457
H            5.27398813036908        4.57217670323555        3.84917872204693
H            2.71450896667092        1.89065053925614        5.48076933921949
H            1.35793629092863       -0.08798835772141        5.99115125401057
H            2.31169661580730       -2.33734272869031        5.72244692117443
H            4.63385594986601       -2.60321395253863        4.96175858796949
H            5.99910927924495       -0.62807010071155        4.46939265627718
H            7.76304741962673        2.81942212358322        5.61511431700873
H            9.57070736814395        4.48033783475829        5.53966071936267
H           10.13753691614543        5.58405089470902        3.41768713094403
H            8.89269374401121        5.02800479846337        1.37260079790160
H            7.08007142140148        3.37048265071293        1.44984977209011
H            8.88351569356834        0.65062688066474        3.36788657855272
H            9.15173613365698        1.42365026898851        1.80060647822291
H            9.35133803802470       -0.31861432236153        1.96863507414358
H            9.43433129151457       -2.40521289678528       -1.62361544545326
H            9.02719085787271       -3.32501181517394       -3.07408218537178
H            9.21122894151978       -4.14963567659053       -1.52103769150136
H            5.10030925292058       -4.66089355817062       -7.18256720675014
H            4.81862255401853       -6.61678805449877       -8.63710980381578
H            4.85738247143012       -8.87976976762551       -7.67847401193639
H            5.16395211438546       -9.18291151341604       -5.25854010146805
H            5.42798217778548       -7.22971799977485       -3.79962718775793
H            2.94093766198746       -4.51680346323012       -5.47657648528214
H            1.59755651814904       -2.52988315987981       -5.98943724514778
H            2.53081099492051       -0.28531596647892       -5.62559893955512
H            4.82006760636343       -0.03203666146368       -4.76750387184852
H            6.17379256885395       -2.01490490790000       -4.27447876653252
H            7.99205884540706       -5.44269920746100       -5.42112171706259
H            9.79021634625959       -7.11157412307149       -5.30632036427994
H           10.26214360153716       -8.26570871293384       -3.18800258136283
H            8.93237798515877       -7.75161357045000       -1.18584365221742
H            7.12933281719075       -6.08594374291897       -1.30266957208381
H            3.68058371823283       -4.50375885922811       -2.53574798547879
H            3.16207193401473       -2.81470150450142       -2.50298800442858
H            3.20839516963814       -3.75676645405854       -1.01329634863589
