95
 energy: -19.973864888995 gnorm: 0.000546213243 xtb: 6.5.0 (97a52f5)
C            0.66584781248905        5.17568259739292        0.85648803825707
O            1.68949386985172        4.35810359016009        0.37452732711537
C            2.81261454769418        4.48344716417486        1.15074598041371
O            2.87482984038392        5.22321073531377        2.11762481599738
C            3.98752534820123        3.66364087549389        0.76070034737757
C            3.96873259384744        2.82259446878151       -0.36057090251663
C            2.90321677764944        2.49205479537702       -1.25640502657557
C            3.33174278570389        1.50610202873871       -2.09304531614121
C            4.69824647901274        1.19931249815026       -1.78376621188988
C            5.51075261230337        0.12193443616073       -2.32867620076594
C            4.99523062466755       -1.18745415546369       -2.40729048885265
C            5.63827617079539       -2.21384750959073       -3.24114424523859
C            5.66007803379463       -3.55258835658349       -2.83580113825889
C            6.26277515347482       -4.51732176172140       -3.60920603542658
C            6.85524814690465       -4.17500505530002       -4.80875723436463
C            6.84032158219375       -2.86113463523869       -5.23341657349286
C            6.23906869643103       -1.89305201025849       -4.46336970753509
C            3.84209179486638       -1.56962126208766       -1.57353659284305
C            3.72030048278932       -1.09544879715947       -0.26230033309586
C            2.65505031494183       -1.45984818477987        0.52587882341410
C            1.68681883727408       -2.31060124158395        0.02984387576797
C            1.79161371752690       -2.79959437644421       -1.25796994652088
C            2.85620005668643       -2.43865929049849       -2.05103434398679
C            6.90976631166707        0.40878865142319       -2.72255105429945
C            7.21264611608452        1.48997750116262       -3.55056105303028
C            8.51446996320571        1.75625615560208       -3.91072013537906
C            9.54079239687146        0.95743443697916       -3.44636543774992
C            9.26171696769452       -0.10778984901188       -2.61424234350514
C            7.96137552353742       -0.38216585066978       -2.25766111878541
N            5.01983976747123        2.01740561572938       -0.73988924589946
B            6.32851447148546        1.92848638008142        0.05240622868407
F            6.47817692338344        0.62414618959998        0.51152296745745
F            7.36589490993836        2.33632775333419       -0.76857786211866
N            6.25352722249117        2.86949077413113        1.26217093419755
C            5.14475040130609        3.63150512624488        1.54972682975787
C            5.41006996101369        4.21085972673325        2.83113138489267
C            6.62062964046604        3.76173825380284        3.26703305814097
C            7.18930410974304        2.91933513267224        2.25487834220841
C            8.37416845660466        2.07154295164809        2.34157458816536
C            9.36578958127873        2.09447359203538        1.33114630450451
C           10.12397014612085        0.87170843371689        1.00695648002783
C           11.49480061024298        0.90904583703017        0.73424735334857
C           12.18004481224317       -0.24141769994375        0.41877290474086
C           11.51759620858222       -1.45264163042173        0.36328545216944
C           10.16151112060644       -1.51024071955418        0.61881213915941
C            9.47170687037228       -0.36336327419903        0.93236664894223
C            9.61970853615033        3.31318056791265        0.55121753713658
C           10.10158266754180        3.23782670663128       -0.75930813709752
C           10.34903252872722        4.37512298139477       -1.49147471982380
C           10.12634290704959        5.61893178219781       -0.93479364698971
C            9.64929209764260        5.71924342954269        0.35742756980469
C            9.39791944152590        4.58360986895929        1.09180302987509
C            8.43871851291399        1.08810118620554        3.44229798938237
C            9.65593574861475        0.69960019724919        4.00214756597668
C            9.69859693207962       -0.21701801263092        5.02803559519688
C            8.52910862063277       -0.76239841953222        5.51928257199461
C            7.31427186766130       -0.38706583685317        4.98099094158357
C            7.26868635964516        0.52885341715783        3.95510723419770
H           -0.21413644447990        5.06795346882019        0.21899147359408
H            0.99824847511068        6.21584323653360        0.84880733137586
H            0.41638893681669        4.88027589052820        1.87775014923682
H            1.91775844735690        2.92289621519382       -1.22946261557462
H            2.74814638653323        1.02357536296396       -2.85868173931787
H            5.20918484654583       -3.81975923157316       -1.89596688017038
H            6.27395021264421       -5.54280677407155       -3.27827845822833
H            7.32657143565670       -4.93221503632280       -5.41361176516979
H            7.30117511541341       -2.59383261813068       -6.17016517237949
H            6.22132750285428       -0.87198331225554       -4.80124329723900
H            4.48531548509865       -0.44399483036930        0.12506931201504
H            2.57650843278397       -1.08133635621746        1.53176713356599
H            0.85139195843020       -2.59481222685756        0.64830977669830
H            1.03737521351427       -3.46663094463624       -1.64174397845807
H            2.93644348763687       -2.81584884323211       -3.05569514089899
H            6.41133782244610        2.11682347979435       -3.90182792768309
H            8.73449956270549        2.59476909819918       -4.55080612906830
H           10.55953584040945        1.16995577405179       -3.72652978359585
H           10.06391904788379       -0.71713509267091       -2.23233648873467
H            7.73996756919695       -1.20417451946785       -1.59921518089853
H            4.73178287756322        4.85074304818760        3.36860350848639
H            7.08288981808559        3.99239980036868        4.21189753691505
H           12.01111382789613        1.85191768813049        0.78403511863270
H           13.23727700645803       -0.19812688696167        0.21482848411862
H           12.05761877562797       -2.35165856904082        0.11555195013182
H            9.64202997014125       -2.45264063620557        0.56227531015755
H            8.40608747743307       -0.38986508377003        1.08021407957882
H           10.22908172991139        2.26900916740243       -1.20864655989187
H           10.70941526044705        4.29515599755261       -2.50386741879498
H           10.32128843435822        6.50990011428777       -1.50868540577760
H            9.47326798807959        6.68976713364598        0.79145730328404
H            9.03339091669381        4.66570680809223        2.10041763230354
H           10.56667343734347        1.12782122101337        3.62126722579046
H           10.64669542540838       -0.50967230056617        5.44836614585699
H            8.56458768160749       -1.48000209326772        6.32248005118344
H            6.40127722690466       -0.81314852115866        5.36317678210595
H            6.32566781988581        0.81452246267927        3.52275182896982
