44
 energy: -8.975058393957 gnorm: 0.000382441892 xtb: 6.5.0 (97a52f5)
C            4.50589731721747        1.21392704636741       -2.23007592533502
O            4.72812305006395        0.02636149086401       -1.53343799809991
C            6.06102051936974       -0.30023075884801       -1.55171876720546
O            6.89169451093823        0.39891400547320       -2.10793638875315
C            6.42179650448179       -1.54027394517411       -0.86075891329044
N            5.47339275531089       -2.13817709759735       -0.20815849265056
N            5.78225404987013       -3.35505623165355        0.26218150739623
C            6.78090184130821       -4.18194277229908       -0.23816761094509
C            6.59312779715495       -5.65605089500654       -0.11315684923674
O            7.14286071768347       -6.26202101837047        0.78698170883713
O            5.78507627225897       -6.23882226856878       -1.04939350723258
C            5.69126875490889       -7.60991454325709       -0.81942642610807
C            7.80890994068709       -3.59942753154506       -0.92546286813739
C            8.78007443414982       -4.39850887156913       -1.68326884930508
C            9.28354957355998       -5.59986461785279       -1.16948245305599
C           10.09139573018254       -6.42007744055576       -1.91623819721835
C           10.41331582132803       -6.08000858470031       -3.21602911441401
C            9.93713754617614       -4.90839376137046       -3.75246838563905
C            9.13900860351752       -4.05330204982034       -3.00450250661858
C            8.70564632105532       -2.76754835166618       -3.60190165009149
O            8.08704693904952       -2.71871453323610       -4.64704712308656
C            9.17246254514557       -1.54357460437008       -2.90571452779141
C           10.01585888320469       -0.67876225228638       -3.59207268333552
C           10.59052197041222        0.39761603383475       -2.95939096971604
C           10.33110031311612        0.62145988664985       -1.62607785177643
C            9.48214929841543       -0.21989542679510       -0.93895347019419
C            8.88140813735141       -1.30594568303420       -1.55757489154958
C            7.83707060406514       -2.08597772066992       -0.77789633666599
H            5.07668068396497        2.01651674885191       -1.75674703660475
H            3.43865190899869        1.44582318347454       -2.20382302116610
H            4.83668692457598        1.08644310718191       -3.26375876034038
H            5.01388605950008       -3.81196206205094        0.74953395954673
H            4.98641866293620       -8.04059216344860       -1.53452784102371
H            5.33838174958046       -7.77777618856670        0.20125099468126
H            6.67736516859995       -8.06242201389778       -0.94774243799113
H            9.00981375849821       -5.89086568387649       -0.17031962155037
H           10.46288841228998       -7.33959963217164       -1.49403627016403
H           11.03734193975203       -6.73113279627426       -3.80626744334488
H           10.18503168904360       -4.63152558173633       -4.76317518901057
H           10.22493186594889       -0.87628801491729       -4.62998942976845
H           11.24578153261878        1.05913025559081       -3.50250751578533
H           10.77682752057847        1.46494073014242       -1.12423619512980
H            9.24873025790918       -0.00917081723575        0.09098380491994
H            8.11833111322318       -1.93552657401109        0.27896154395115
