40
 energy: -7.441236304067 gnorm: 0.000660818222 xtb: 6.5.0 (97a52f5)
C            1.17753812930200        0.38728830666504       -0.92290124582193
O            2.55245053294389        0.26122121551788       -0.74322157819268
C            3.05873771023366        1.38580996104244       -0.17205798210104
O            2.38955722203391        2.34544055325564        0.13288210981483
C            4.53777923704140        1.39784127746589        0.07201638826106
C            5.28906505706832        2.29336801936967       -0.92879626858219
C            5.29580222457988        1.68016426666843       -2.33571544796504
O            5.53573308136284        0.50154345098389       -2.43651547386384
O            5.05458842244602        2.51873053288640       -3.36214645809195
O            4.65646440390443        3.58426114093564       -0.97162623632499
C            5.53405951590241        4.45043727679895       -0.35169398213804
C            6.75752283115122        3.79121806753929       -0.09888898237000
C            7.84250778700356        4.46920905731519        0.47723659679348
C            9.10838056295398        3.79639087203226        0.73657593780678
C           10.23271192293089        4.57255437566755        1.34138466046571
O            9.27740042843536        2.62884623429943        0.46549735409094
C            7.64013893816713        5.82242150718411        0.79715679831107
C            6.40184993397895        6.47206444130288        0.56846752327144
C            5.31392252253542        5.78960489357279        0.00251560984897
C            4.00770546357293        6.42262804876469       -0.15757336158062
C            2.80399213182640        5.58449716105185       -0.45161028835536
O            3.86871788956246        7.62038127922997       -0.05598218877341
O            6.48908403011921        7.78367119469864        1.00233959381824
C            7.80979568336363        7.93173193985923        1.49355000885804
O            8.52830597859099        6.71733249484899        1.37287198637657
O            6.65219443142651        2.46947064963384       -0.49002102177114
H            0.79732063474446       -0.54944861353809       -1.34047683632659
H            0.98933276646840        1.21633721990844       -1.61150834068071
H            0.71215627831989        0.59082467063981        0.04627443359028
H            4.93774786059116        0.38299601937418        0.00970744961105
H            4.72936840785500        1.76931166446411        1.08056138749887
H            4.88092649483567        3.42295645632109       -3.04056652709084
H            9.89465330798114        5.13717197765899        2.21145223672293
H           10.64658950970830        5.27675876670221        0.61910900983671
H           11.02588884174618        3.89383912461471        1.65539379038693
H            2.97971796595434        4.52738270341113       -0.24058420153647
H            2.51744007605525        5.68634104057128       -1.49773996798600
H            1.96486352689018        5.91625050414625        0.15974417034772
H            7.76682220437345        8.21713829628193        2.55568247729334
H            8.32350605203760        8.70929195086067        0.90792686655235
