43
 energy: -7.891016544124 gnorm: 0.000777477671 xtb: 6.5.0 (97a52f5)
C            1.18721789927759        1.40632380161944       -0.25605941655364
O            2.22384375511656        0.97575893236977        0.56841035547245
C            3.42626236421984        1.32261923462769        0.03600909631730
O            3.55590839790174        1.91647494688574       -1.00867388305544
C            4.63035574571923        0.92544315712927        0.83303388916780
C            5.25807926075244        2.11834938441804        1.57108967646034
C            6.46868860488564        1.67539878087491        2.40701593473971
O            6.70964785726755        0.49718296793174        2.52197379205310
O            7.18569623918522        2.67379773711005        2.97504770699962
C            8.24533637133332        2.14239818560300        3.70842321242077
O            5.69380289880180        3.10175054553804        0.61527164555756
C            4.99191810023120        4.25149288614913        0.91927239304340
C            4.15446577367557        4.02433937571684        2.03535477417101
C            3.34300010594579        5.04226250841723        2.55895713106832
C            2.48093363392480        4.81268791055809        3.71078236958908
C            1.63886562771879        5.93838581147178        4.21631430378777
O            2.43173502797897        3.74092990285751        4.27177881912694
C            3.40486635596324        6.28990662333678        1.91732096060073
C            4.23633758101769        6.51361434390768        0.79257519475881
C            5.04335412141718        5.49338092334120        0.26715540527655
C            5.87667400169409        5.70665755528347       -0.90850213683821
C            6.63530711137604        4.54921772702798       -1.47134317183801
O            5.96339283637627        6.78846987819697       -1.44498373461889
O            4.08664079865456        7.82428763946899        0.37091187440604
C            3.15087406484711        8.40408201480589        1.26336712830444
O            2.72077673085323        7.45632962783663        2.22386911697412
O            4.28751910063798        2.71579863338312        2.45317880342124
H            0.23700929877021        1.12514537381040        0.20580801054405
H            1.29325808386539        0.92630443447771       -1.23301315259932
H            1.24967183760922        2.49260665411145       -0.36466309378630
H            5.37932297428687        0.48471627421305        0.17260052192665
H            4.34782685070450        0.17039882187005        1.56928398142616
H            8.81459412461773        2.96760530534794        4.14511977789462
H            8.87837179844095        1.55584531232225        3.03618485853671
H            7.84161508635499        1.50058953881745        4.49689352216165
H            1.02416841204698        6.35349895375001        3.41683574909404
H            2.26359520358815        6.73876803817988        4.61355707141380
H            0.98209856831818        5.58552031568778        5.01117712288184
H            7.27282092643475        4.09605013594078       -0.71077360378313
H            7.26272356022540        4.87994204247528       -2.29914368723124
H            5.94992677018314        3.78322760965428       -1.83781035317135
H            2.27894730658900        8.75318867873451        0.69036791851475
H            3.62773883117510        9.24825147474943        1.78347411535307
