51
 energy: -9.361701785852 gnorm: 0.000415674653 xtb: 6.5.0 (97a52f5)
C            1.27516218034269       -0.03089951636589        0.86140375225256
O            2.66802944870846       -0.03820686857694        0.93263022386756
C            3.17598076122489       -1.01088449599715        0.12181512122254
O            2.51244223455584       -1.76030552076031       -0.56036184591187
C            4.67123076459090       -1.13129152649904        0.11568585046567
C            5.14225489722061       -2.43606131628739        0.73349934619641
C            6.65902355511549       -2.58818118812036        0.72095151385285
N            7.31841922526455       -1.53293107921072        1.47097878692120
C            7.63232941643297       -0.32274929424733        0.89318977399779
O            7.41827732539203       -0.09291441170814       -0.28069288747157
C            8.23815558310688        0.73602554435618        1.76253768700070
C            7.30223998303848        1.91851884310431        1.94468844000394
N            7.86645727931814        2.98173014542611        2.76976146088418
C            7.23018249483191        4.17414785291940        3.09247002623869
C            5.94384985488070        4.42144443841668        2.64253477994873
C            5.28295185187984        5.60648516215048        2.93884854632778
C            5.88896425853059        6.56987122724078        3.69213297954075
C            7.19666317481610        6.37922151303513        4.18433900710023
C            7.83651151087791        7.36604434694380        4.96604536336636
C            9.10000278751014        7.17068367369186        5.43558943822816
C            9.77962869487626        5.98580346153598        5.14932225934388
C            9.18807439495932        5.01242951084954        4.39697479964837
C            7.88397305200126        5.17473038638405        3.88968198151713
C            7.06859817885710       -3.94138289369324        1.26058617808754
O            6.94851337201117       -4.17014095280486        2.44281523272971
O            7.53727144662573       -4.82430669151885        0.33399234004813
C            7.87887026957985       -6.02869927463881        0.94819156085980
H            0.88961659052128        0.77057730237688        1.49552804883446
H            0.89279766169181       -0.99454960039634        1.20602768818209
H            0.96950549466370        0.13601586431973       -0.17418916518766
H            5.09651825187942       -0.28306198250765        0.65858224569032
H            5.03683007606399       -1.04503428553648       -0.91142960442593
H            4.68033712721650       -3.27981441149368        0.20832178810044
H            4.79084113719255       -2.50461002577497        1.76824726072652
H            7.02634380736292       -2.51000952196806       -0.31261547413606
H            7.39609966001983       -1.69479585020096        2.47459309216546
H            9.17658597644591        1.06906572626798        1.30953923519070
H            8.50211296525398        0.31252397442231        2.73577258239902
H            6.36445901600335        1.58495915743326        2.40142992088154
H            7.04147749956162        2.33717808391635        0.96653787353179
H            8.83031574009986        2.80017610369516        3.03509059767184
H            5.44597723621592        3.67847116108375        2.04601214801827
H            4.28321494830256        5.76529397480592        2.56899526191223
H            5.37294993953009        7.48663359558633        3.91906146508414
H            7.31025513273419        8.27841613568795        5.18753718004742
H            9.57846575174185        7.93082674764506        6.03097504235228
H           10.77854944236607        5.84144108370642        5.52728596352750
H            9.72893777140780        4.10718882559152        4.19355674894496
H            8.23106870185384       -6.72914938699389        0.18752643566178
H            6.99964251196773       -6.43847441854695        1.45101997916861
H            8.66914956334685       -5.84604932873973        1.68017196939013
