63
 energy: -12.166165417434 gnorm: 0.000806791902 xtb: 6.5.0 (97a52f5)
C            7.18869310951169        0.91940620754396        6.96088623602827
O            7.43261275938379        0.11676386743589        5.84697531273097
C            8.76555407296900       -0.15584273513214        5.73883437700855
O            9.61502080393313        0.23274685524167        6.51062898156135
C            9.16801498636186       -0.98718241167888        4.55310757367886
C           10.08199326938304       -0.21739123766981        3.60178404280653
C            9.41426614638187        0.95523713967753        2.96178271358229
C            8.82920472121645        0.98097623136706        1.71845592762403
C            8.28435188241870        2.27590483540400        1.47979637130178
C            7.61642470500239        2.78770129379008        0.38690101462301
C            7.02234983666104        3.38402254962036       -0.50973165008258
C            6.35428708585106        4.16935467790668       -1.45863934470427
C            6.13111915717856        5.52952630215669       -1.19977091527701
C            5.45987014272657        6.18534647571516       -2.22949983740453
S            5.19346227782724        5.04354754390698       -3.37077305242330
C            5.86712999868174        3.61783272301831       -2.74236984550116
N            8.55096965193006        2.99209729035048        2.59355570474999
C            9.23300876138356        2.25580854130902        3.54556777115666
C            9.59932609497399        2.76382174323088        4.77899434170946
C            9.27540002454043        4.07630929136191        5.06848989119389
C            9.50508226821820        4.87202382835473        6.24151050866940
C           10.26257677971186        4.44513343424481        7.45373961333727
C           11.76789356663707        4.61172010030790        7.29562251040971
C           12.51303697028221        4.17820062840859        8.52603159409653
O           12.31950708020552        4.75208695879863        9.57514638141352
O           13.37520921336577        3.13331201440205        8.36090291331094
C           13.99356516123570        2.82159688306556        9.57125734135539
C            8.97611729591444        6.11759181911404        6.00177840791217
C            8.39325029480984        6.13866979795185        4.70135447959400
C            7.74243428060624        7.14434739922181        4.01773990457194
C            7.14599600562564        7.92588690626841        3.27897384541868
C            6.46428068542246        8.71726930224060        2.34477072147393
C            5.67221362522370        9.79798103546087        2.75771558186643
C            5.05964980503250       10.46808545438481        1.70025948386718
S            5.54035956495591        9.68091306831816        0.34817662789621
C            6.55129551071160        8.43234842575089        0.89381213471825
N            8.60105853763541        4.90534562436363        4.19043580272686
B            8.13150859933990        4.45396822007348        2.80068616210893
F            8.73779659656269        5.24235979130251        1.83558241309251
F            6.74949991950989        4.54216711555197        2.73821318550753
H            6.11059433036192        1.05393114382676        7.07284699756224
H            7.66812347544287        1.88978315854241        6.81690431999922
H            7.59770899110774        0.43566257074612        7.85094795064482
H            8.26496597661480       -1.30899065828413        4.02634236840884
H            9.65986161912892       -1.89550687698782        4.91515464955919
H           10.46222614517152       -0.88102244323101        2.81647027720062
H           10.96365039002363        0.13172468737034        4.15017033863939
H            8.78762496991408        0.15532068195323        1.02957335889726
H            6.45437499991091        6.01768067457211       -0.28946659931238
H            5.16823561420907        7.21762126458021       -2.28015887798422
H           11.66787693232814       -5.35009033491151        3.39224952006392
H           10.07411930981734        2.13901118852684        5.51078646493001
H           10.02803646238505        3.39991304052567        7.68241813000638
H            9.92018553211688        5.01940248069184        8.32135645986377
H           12.01047804094675        5.65619255331336        7.07966579330131
H           12.12364656263082        4.03101285790641        6.43953749729334
H           14.67879199784632        1.98529106292844        9.41600356464775
H           13.23028117306807        2.54638202108449       10.30288776173123
H           14.54662157755618        3.69398821600492        9.92722925905607
H            9.00184967595384        6.94996189326289        6.68333913020270
H            5.55074420266454       10.07656473498078        3.79671249287190
H            4.40762304178994       11.32048188935784        1.74238654367559
H           10.07103773105850       17.61464920066751       -2.11444262245772
