21
 energy: -4.622006469723 gnorm: 0.000767031450 xtb: 6.5.0 (97a52f5)
C           -2.62319491190394       -0.64612782935340       -0.00082176352882
N           -2.36349496625155        0.62068942145906       -0.00071970150242
C           -1.02971931917883        0.96111254570587       -0.00043957061070
C           -0.65342891086218        2.30139038332647       -0.00050514566348
C            0.68239214721308        2.67898108682651       -0.00041293593628
C            1.68064520879204        1.73864924972393       -0.00022204497426
C            1.36507456760196        0.36615017003422       -0.00011386865828
C            2.34461379891567       -0.64821920310704        0.00004907697649
C            1.98129567753943       -1.97233038316199        0.00021680270639
C            0.64343207185574       -2.34254713101695        0.00017594527814
C           -0.35280271247362       -1.37538000430676       -0.00008843216487
C            0.00090701981225       -0.01249843741133       -0.00015032353883
N           -1.70449346678100       -1.65759246227572       -0.00048988806799
H           -3.66617053303622       -0.92062340198857       -0.00079908640672
H           -1.42687770052608        3.04894754825858       -0.00067617489357
H            0.93676087968204        3.72618746891220       -0.00050989521914
H            2.71406260744686        2.03867014066063       -0.00016323328737
H            3.38390484829955       -0.36923666536751        0.00006385493036
H            2.74275764766047       -2.73484217872491        0.00034882940902
H            0.36533344765063       -3.38156961034814        0.00018565919921
H           -2.00138740145631       -2.62954070784514        0.00213189595313
