39
 energy: -7.661976458248 gnorm: 0.000873441717 xtb: 6.5.0 (97a52f5)
C            1.33827656372135       -0.49639713279949       -0.44589638192400
O            2.43125011363413        0.36804188401026       -0.47462934007202
C            3.33799032567954       -0.04594154181639       -1.40432737305361
O            3.20309397385133       -1.03057609985624       -2.09477119312110
C            4.55841320333671        0.82511812620793       -1.51783691509448
N            5.45641880649325        0.38190748753334       -2.56636608096624
C            6.44988181753713       -0.58646459467280       -2.37835986023883
O            6.78505256112153       -1.10599373194205       -1.33392639034752
C            7.01675972636287       -0.83470334295398       -3.71011687157001
C            8.01930932335665       -1.67539449597268       -4.10792544534389
C            8.37697618319597       -1.71827983953614       -5.47075441088099
C            9.40637540164969       -2.56457008751562       -5.94212252452622
C            9.74238671342687       -2.59076876084735       -7.25751355274149
C            9.07883530221435       -1.77470603051944       -8.20686852553694
N            9.44181552006449       -1.80876689273591       -9.56462574371672
C            8.90157528296466       -0.85140417356621      -10.53063419208933
C           10.39708726785505       -2.78945249637627      -10.08111366635703
C            8.06863451714283       -0.94278591757445       -7.76174543753954
C            7.69404668529956       -0.88961777332509       -6.40951233570477
C            6.65920566259495       -0.03290380033316       -5.96341970209618
C            6.33875958838848       -0.01582474206490       -4.63696149225365
C            5.33122492409218        0.76698691333229       -3.90627912138796
O            4.56342039818057        1.58457246676437       -4.36869838611591
H            0.63970238691643       -0.15835504456901        0.32339357510909
H            1.68753045169379       -1.50675115274925       -0.21736635437325
H            0.84965563099393       -0.48701859812283       -1.42365523184825
H            5.10322012699407        0.82444639752929       -0.57110661511704
H            4.25960303347902        1.85400216629605       -1.73150110588480
H            8.52355120851022       -2.29120877698090       -3.38605443539174
H            9.92620670366669       -3.19134647974558       -5.23808218633431
H           10.53761863286162       -3.23507622496805       -7.58684164337575
H            8.97432636206332        0.15928694931264      -10.13434581283361
H            7.85989884572255       -1.08535393363126      -10.74069304913327
H            9.45976586947507       -0.88431706813490      -11.46375437364149
H           10.12680126617430       -3.78712255159881       -9.74186867684515
H           11.39966297895137       -2.54805223611445       -9.73468668263192
H           10.39748450118345       -2.79501259243519      -11.16866817107353
H            7.54101943137743       -0.32431488910693       -8.46287982054085
H            6.13141270777253        0.59984861157732       -6.65307447340589
