72
 energy: -13.714563991697 gnorm: 0.000983532679 xtb: 6.5.0 (97a52f5)
C            1.11553363622718        0.05115239342824       -0.89295799497279
O            2.49480115534880       -0.05634824288954       -0.70918960916411
C            2.89384042832971       -1.35024580424740       -0.87124283098114
O            2.16144880312290       -2.27935444122355       -1.12593022906290
C            4.37512841229791       -1.59233948951102       -0.72403212558619
O            5.00889359318036       -1.67817927024315       -1.99153589581779
C            6.37224348725947       -1.88323730544736       -1.94133530019724
C            7.06071424386358       -1.97573606344573       -3.16597519193592
C            8.41085882790462       -2.17146763184351       -3.20834367678696
C            9.16573921435517       -2.28645847812139       -2.02885327966484
C           10.58213312034775       -2.48737093325232       -2.10959336595353
C           11.42280280603860       -2.57701492120141       -1.05004870363300
C           12.82125196350465       -2.77981169894010       -1.14576957234408
N           13.66644376839341       -2.85779533246710       -0.08543386146995
C           14.97000971256894       -3.06021496174501       -0.46186829423284
C           16.03977985565518       -3.18378965386789        0.46149903161014
C           17.43415267467731       -3.39475437439171        0.02271891215830
C           18.10998394506759       -4.59635508928342        0.30440155667856
C           19.39761249887326       -4.79514838748420       -0.10210473221788
C           20.09816509450635       -3.80355440256186       -0.81709395526234
N           21.40121392648011       -4.00509162658668       -1.23082115580553
C           22.12234627381793       -5.24605923623213       -0.93862207956450
C           22.13965165042810       -2.98920785110969       -1.98462957417555
C           19.42122781609471       -2.59950708476587       -1.09571295731710
C           18.13295675480977       -2.40281035903016       -0.68973279685033
C           15.69074577182411       -3.09938876743658        1.83368623798589
C           16.49177047603184       -3.10522458219733        3.01426122259790
C           17.96832047278362       -3.21129174209604        3.10931774188497
C           15.63391043092802       -2.97709894253548        4.09324649680580
C           14.31213809018545       -2.87376507032751        3.61899573164867
C           13.08045567250582       -2.66133519106953        4.40157531305031
N           14.39022240102518       -2.93375745621715        2.28484264632826
B           13.17653259985397       -2.77735094492482        1.36351194207032
F           12.58890193096753       -1.53903947051786        1.58222434346806
F           12.28030192865176       -3.80918436769236        1.60503110608212
C           14.93821754574727       -3.14708673630872       -1.89907469718249
C           16.07891984408878       -3.39424002465644       -2.81434754224246
C           13.63760581096644       -2.95872085245463       -2.29859922858886
C            8.48049988726621       -2.19878876539778       -0.80443356630905
C            7.12890273116400       -2.00429863013999       -0.75930715482694
H            0.81433516325958        1.09162150749162       -0.75021049033333
H            0.60202352583810       -0.58360811141188       -0.16685167361676
H            0.86044688495144       -0.27055229079304       -1.90546177557527
H            4.54311875339904       -2.52917106917411       -0.18520310785841
H            4.82627795965163       -0.76768658429961       -0.16459182469721
H            6.49099657875099       -1.88562879181628       -4.07380616712936
H            8.91437503149839       -2.23681841148748       -4.15754366998472
H           11.00549928656704       -2.56766344611563       -3.09471661062446
H           11.03191009111571       -2.48659765037503       -0.05445834144527
H           17.58392427167014       -5.36866110269589        0.83833077323194
H           19.88649937272785       -5.72570542417102        0.12287874974880
H           22.17455962259561       -5.40131407621281        0.13704920849047
H           23.13838394608298       -5.21169544502064       -1.32503839003988
H           21.61198361887510       -6.08974560831157       -1.39861179706841
H           21.62303237082651       -2.77004573259052       -2.91685187740283
H           23.14422715224896       -3.32918896544997       -2.22569613748062
H           22.22192419168028       -2.07719220419134       -1.39704910795751
H           19.93033942189365       -1.82271042488350       -1.63684770795706
H           17.63387746806571       -1.47248111191411       -0.89883784538780
H           18.45390518016788       -2.65320520563987        2.30886055521248
H           18.28889719478836       -4.25108001698411        3.04572428287657
H           18.32736001519863       -2.80850883303321        4.05668173038817
H           15.92947370960825       -2.94211748885878        5.12783049573358
H           13.15452204127369       -3.12388055067540        5.38624636138492
H           12.22384703451083       -3.09421459740066        3.88363077434578
H           12.88895970812393       -1.59627456598016        4.53468859164627
H           15.73328241651839       -3.79187576149654       -3.76887084350711
H           16.62383561717422       -2.47178713535117       -3.01482701252760
H           16.77388240295381       -4.11790898234788       -2.38851492394291
H           13.29339357229484       -2.96516086925625       -3.31783312434100
H            9.02850667257365       -2.29051411243993        0.11587800297173
H            6.63790046598275       -1.94477514668119        0.19458999260375
