79
 energy: -14.857052367946 gnorm: 0.000806181015 xtb: 6.5.0 (97a52f5)
C            0.98045110748104       -0.64204006039818       -0.70390714151706
O            2.35575309740733       -0.56835389859202       -0.47659135257588
C            2.79295676246470       -1.70095441059521        0.14442314576970
O            2.09409215261774       -2.63612297212944        0.46453278894164
C            4.27382281887626       -1.75319864650091        0.42545836901297
O            4.94856744685702       -2.56001782403036       -0.52902383263819
C            6.31187489381660       -2.65637213664701       -0.33980837976140
C            7.03897446233223       -3.45577819509034       -1.24249636934163
C            8.39080417295258       -3.60619049406435       -1.12789236660574
C            9.10839477418594       -2.96652386698709       -0.10315550817954
C           10.52642849621554       -3.14901623451128       -0.00890407927842
C           11.32953036742298       -2.57391120407010        0.91927040646039
C           12.72882586198059       -2.77289421048619        1.01037848148805
N           13.53110856610493       -2.20546621433816        1.94795233967673
C           14.84507694417698       -2.57716260904157        1.81448717205464
C           15.87495717212362       -2.13183178235793        2.68272431251916
C           17.28034520370018       -2.55274588180779        2.51495020426586
C           17.92025151933764       -3.34891932711027        3.48167425709428
C           19.22193622458295       -3.73179420938849        3.33463672100263
C           19.97955020095675       -3.34101196382950        2.21099152954118
N           21.31064416723754       -3.71147522956490        2.07203625620112
C           21.98680535565745       -4.66328643056014        2.98285302467540
C           22.87575855358721       -3.91028880221219        3.97659469914835
C           23.91123884164015       -3.05631977604162        3.22316986994544
C           23.22444879583117       -2.13878832804847        2.19451831521652
C           22.29594170044170       -2.94008263455363        1.27249978023885
C           19.33279840805884       -2.54594245540650        1.24195545980286
C           18.02970262403106       -2.16684960595208        1.38907958218311
C           15.47402243141539       -1.26452700451961        3.73123594229172
C           16.22574914329109       -0.58200426129070        4.73395671046510
C           17.69306027949067       -0.61158331497509        4.94914065320380
C           15.32730171909998        0.14074544205091        5.50017195336307
C           14.03027098954785       -0.04613590765946        4.98398771057643
C           12.76033183367096        0.52366545331435        5.47288025089046
N           14.16021179028041       -0.87539666066111        3.94278839422509
B           12.98346037219949       -1.30928004223514        3.06356809122024
F           12.38783975284483       -0.18739690175143        2.50335831643759
F           12.07802604586516       -2.03032358316673        3.83035684404402
C           14.86766327582304       -3.48991599031517        0.70051652817205
C           16.03804223266385       -4.21795653124831        0.15269773260692
C           13.58627194978752       -3.58489404699608        0.21473838451383
C            8.38526658427961       -2.16724699430348        0.79945892407133
C            7.03205655704332       -2.01591295824829        0.68754921992774
H            0.64693855303617        0.27781397829370       -1.18880098585306
H            0.46124971086978       -0.76496752912684        0.24904010731325
H            0.76617178131947       -1.49592943077818       -1.35009126484287
H            4.44378740283251       -2.17376734198299        1.42072390458521
H            4.68956245782640       -0.74229643574928        0.38482972477040
H            6.49761148197741       -3.94903375361612       -2.03011695993949
H            8.92403400213589       -4.22339497101983       -1.83036565213909
H           10.98235627625059       -3.79679673630167       -0.73598739619330
H           10.90391425555520       -1.91655628491249        1.65334931555584
H           17.35802087958142       -3.65792120631669        4.34583977484023
H           19.68498258838417       -4.31126126002839        4.11169111136586
H           22.59736885191915       -5.33194484107716        2.36763560095076
H           21.25656602894452       -5.30954048108025        3.47763203695375
H           23.36492796272946       -4.60582976155595        4.67181353125354
H           22.24871250366541       -3.25772709504755        4.59526626516753
H           24.62208014589979       -3.71405938367546        2.70883138312008
H           24.51332241696115       -2.46644857193460        3.92785287358724
H           23.96839503628301       -1.58241207602903        1.60843488957840
H           22.63442447170602       -1.38064614668579        2.72288975808023
H           22.87307755346725       -3.64940021872055        0.67150760495616
H           21.78712657168773       -2.28568816870374        0.56125887183719
H           19.86115372559772       -2.25982795540082        0.35158901796349
H           17.55543970084079       -1.55327494445168        0.64278910661552
H           18.22866555982761       -0.64502932195104        4.00021844073075
H           17.98290120057698       -1.48180337947772        5.53834201349186
H           18.02591468541755        0.27905046946468        5.48311068086503
H           15.58003582844793        0.75939944216332        6.34415769187096
H           12.93454800984355        1.29900500770802        6.21911292124258
H           12.14148855647975       -0.25321081168631        5.92212180886158
H           12.19909061689903        0.96185207090309        4.64727397280383
H           15.72238401408100       -5.10357585483014       -0.39941423096771
H           16.60640196249166       -3.58504511362754       -0.52883771912600
H           16.70339826826470       -4.54754863764434        0.95063328779493
H           13.28063298578888       -4.19258034968823       -0.61872719887798
H            8.90496960639078       -1.66714498635900        1.59656209642019
H            6.51167869665024       -1.39893521277642        1.39684027400230
