113
 energy: -21.385061054474 gnorm: 0.000893263237 xtb: 6.5.0 (97a52f5)
C           11.31929569677126        9.61053026607499      -14.25052277148588
O           10.72313800598128        9.15460400129805      -13.07484642152650
C           11.65882196471778        8.58162351928276      -12.26509834939868
O           12.83912946841806        8.48534576155338      -12.52817540027451
C           11.14808848863754        8.04540451876224      -10.95762632875734
C           10.38471496532244        9.08191652782122      -10.13289635378825
C           11.17077248829459       10.39216015647727       -9.93487760377013
C           12.50150187882114       10.23810766086539       -9.27170134248603
C           13.61504213426738        9.64245440125055       -9.81162528267337
N           14.66429185929826        9.72299417449385       -8.93185982457883
C           14.23877866820623       10.39400169629785       -7.79931949795995
C           14.90424304302739       10.74672632953937       -6.61818795892939
C           14.21239155782764       11.43288428831393       -5.65810336329930
C           12.86458848246400       11.78020508783572       -5.84329445733423
C           12.19722780886846       11.44425626462782       -6.98853338146326
C           12.88458820682770       10.73482671207229       -7.98874003768529
N            9.94857107378778        8.50027975537348       -8.86254819698653
C            9.18564062201398        7.35877672422898       -8.81374009513854
O            8.84474259955043        6.75585086977260       -9.81130415546120
C            8.77834187826676        6.78708597317508       -7.46736427358285
C            8.61135389234739        7.83110486634284       -6.35169948452366
C            9.91030243444975        8.30914421822485       -5.76748087814766
O           10.36527175982046        9.38869988687657       -6.08903857437221
N           10.52263370889114        7.44939727011896       -4.88650769662475
C           11.77481722996796        7.75561815482779       -4.20054636033785
C           12.84906340674928        8.22937823011514       -5.17328927503919
C           13.18783952886389        7.23437425227017       -6.23087969252888
C           12.74163587127249        7.25295066575168       -7.49342550873515
C           13.35321024762823        6.13383246210084       -8.28088696705059
C           14.14911441730492        5.37339256415886       -7.26049434153392
C           14.85879743759419        4.19352412405734       -7.34797740477531
C           15.47022777404958        3.69938838078005       -6.21076587635086
C           15.37123163961157        4.37231425593261       -5.00384055628207
C           14.65972555933524        5.55048638360805       -4.90853054025392
C           14.04506578323130        6.05378339902809       -6.04665983409825
C           11.52043524044955        8.75878276610453       -3.09039828260159
O           10.77649916110694        8.44196471197436       -2.18917767882904
O           12.16424279201442        9.95843195040371       -3.17799704868450
C           11.81751885209166       10.77004259346134       -2.09765016904231
N            9.70903808699302        5.72544843759946       -7.10895789503731
C            9.51019143558207        4.89127468476111       -6.02978336968042
O            8.64391541046672        5.06476888611667       -5.19590659662628
C           10.46224538951132        3.72422765926119       -5.87392622639855
C           11.27014372899852        3.86753143821914       -4.58426582870688
C           12.24511375027203        2.76542755561933       -4.34232649387164
C           12.67714645390630        1.82115171052732       -5.24014150671944
N           13.61775178893365        1.00982788657183       -4.65620003696961
C           13.82325566609510        1.44456575802732       -3.35795251024276
C           14.68330527072040        0.99933781100942       -2.34581411363067
C           14.68118418258777        1.66095938906500       -1.14829143139581
C           13.84101761221332        2.76494465314781       -0.92746004519442
C           12.99351096067541        3.21591541296643       -1.90127262438258
C           12.97521271154682        2.54846135045165       -3.13756552986191
N           11.33839424299796        3.62625973139763       -7.03174507753350
C           10.86559066598097        3.20111014829473       -8.26391922301234
O            9.83221078480165        2.55910775211404       -8.34378804853174
O           11.62937999617466        3.60049721669084       -9.33231772492549
C           11.09036533380767        3.24627127781897      -10.63392360545670
C           11.03794838086887        1.72035485021499      -10.77744234239903
C            9.69590285621644        3.86023573776081      -10.81455430715293
C           12.04018983933619        3.82751755691822      -11.69226651304638
H           10.55463931776911       10.05795998048124      -14.88926520999057
H           11.78616511026388        8.76851494064059      -14.76671902241760
H           12.07933854712628       10.35556667868764      -14.00471390225009
H           11.98754183031841        7.66719415154403      -10.37249028189426
H           10.50298941275016        7.18553080273425      -11.15042165281848
H            9.45834056872224        9.32040731763112      -10.68279410673858
H           11.32634701900074       10.87116132116481      -10.90738075837876
H           10.56184960676961       11.09046089924797       -9.35282850408164
H           13.66863625583512        9.19129585656355      -10.78916047284827
H           15.60761081684932        9.36372381798048       -9.07781410241541
H           15.93562972932004       10.47426517609731       -6.48428393150912
H           14.70606625596173       11.70557380619864       -4.74015020590711
H           12.34278663402693       12.30335828600057       -5.05917389777419
H           11.15575603011730       11.68083457154014       -7.11543768476949
H           10.18215483623925        9.00202682292962       -8.00075434454453
H            7.80630343651978        6.29450553448910       -7.62923229916214
H            8.04524424254052        8.68993623159940       -6.72190035653369
H            8.01963570177756        7.39744589617798       -5.53948617494437
H           10.03283198389880        6.59333909644755       -4.60894897444778
H           12.13227096572824        6.83341378197448       -3.72048032991895
H           13.75448568507361        8.50784339087923       -4.62464210886660
H           12.48913808883315        9.14727475840523       -5.64507605542894
H           12.01848690118034        7.95512828218797       -7.86573928510281
H           14.00974584627388        6.51775946776003       -9.07023426369575
H           12.59373810285355        5.50046569450541       -8.75243013427782
H           14.91856619220517        3.67144034544586       -8.28683058885537
H           16.02467024470210        2.77713122038198       -6.26183483517443
H           15.84579872589104        3.96540570607798       -4.12618647509473
H           14.57140285861221        6.07248249563263       -3.97239753907348
H           12.35524651983423       11.71763606157187       -2.17134766859130
H           12.08566792306538       10.26487575780594       -1.16696820139374
H           10.74071782475529       10.95265053819887       -2.11897014467570
H           10.30497842464850        5.41608727345437       -7.88339267968211
H            9.87069823347846        2.79877311700926       -5.84066629648418
H           11.81674368508056        4.81268482090793       -4.62420071416847
H           10.58720138677672        3.94748494483189       -3.73278563969311
H           12.35000916336601        1.74930645398602       -6.26293090002956
H           14.11562682517778        0.23915952696204       -5.10075397477844
H           15.32562499706748        0.15518147263210       -2.52181239695272
H           15.33644180310636        1.33158660216578       -0.35904560932695
H           13.86671088450328        3.26392902395752        0.02713044225084
H           12.35174210020149        4.06356242131597       -1.73934445971565
H           12.14943991513526        4.23452532731774       -6.98692210753555
H           10.37412809048933        1.29222454050443      -10.02887810648965
H           12.02762220838608        1.29215026564028      -10.63070405449854
H           10.67772683601087        1.42932738462139      -11.76286374771710
H            9.00106516699401        3.45152116974580      -10.08398746108679
H            9.30272083420677        3.66210440322746      -11.81015590662423
H            9.73257945474010        4.93693012179513      -10.66604877644053
H           13.04176561994423        3.42136978659517      -11.56532406488163
H           12.10443478946971        4.90908192499536      -11.59050431707366
H           11.69945418939855        3.59692800033601      -12.70042339908581
