39
 energy: -7.996135113289 gnorm: 0.000627447462 xtb: 6.5.0 (97a52f5)
C            0.98478177099298       -0.42281164523354       -0.22718197702582
O            2.30538721894164       -0.34306068222944        0.21055673230741
C            3.12416901210090       -1.03337887229728       -0.62982203672537
O            2.75550212189056       -1.61725418318083       -1.62473856547874
C            4.59298978593669       -1.04790099857717       -0.26461073038189
C            4.84245762416375       -1.90838203363860        0.96014617976673
O            5.04840536464288       -3.08774269173855        0.78196417109501
O            4.83633698505484       -1.33564210723527        2.21042061057419
C            4.63958542253920        0.04545775983559        2.33716607516144
C            4.30891908059194        0.55819395879067        3.58891213592114
C            4.11384550794050        1.90644518270942        3.76996764931072
C            4.25042917876446        2.77273500400301        2.70576153818369
C            4.58380188215101        2.28404315522377        1.45979379414333
C            4.77965352783834        0.93078968479875        1.26122337805084
C            5.15588151669410        0.38338024524386       -0.08754433465450
C            6.64689725080507        0.42354985618795       -0.29139568310432
C            7.57146167264175       -0.28993814064361        0.42834502937525
N            8.83666827169764        0.02299326614269       -0.00081142718598
C            8.74029382191480        0.96213765833359       -1.01318361311674
C            9.71429624702506        1.61762394504614       -1.77732819508536
C            9.30692128643119        2.52026314221446       -2.72092374943745
C            7.94459647369026        2.79151555449693       -2.92727591773271
C            6.97783484778747        2.16426345666212       -2.19120619904749
C            7.37231300795278        1.23287879032283       -1.21512612252175
H            0.35790368269455        0.19007342371140        0.42461491976562
H            0.65711934449105       -1.46431725785727       -0.18675508137789
H            0.92350573183424       -0.05620179621344       -1.25474568333157
H            5.12646427715234       -1.52393131663763       -1.09835656140710
H            4.20748213343469       -0.12828807935303        4.41084951273244
H            3.85493124322290        2.28690179627611        4.74463401856468
H            4.09888651116671        3.83014651563213        2.84730169717781
H            4.69834963061461        2.95819700193354        0.62848844623926
H            4.68557793397943        1.02103671893881       -0.85011805675525
H            7.33636217666026       -0.98185502867223        1.22113653941970
H            9.71016538694432       -0.35849941063239        0.36093849332166
H           10.75559558450165        1.40615373942161       -1.61208926899208
H           10.04286704492638        3.03402217071902       -3.31732429767622
H            7.65843027681296        3.50758092502805       -3.67999451714419
H            5.93440016137374        2.37080129246959       -2.34876890292748
