26
 energy: -4.774431459748 gnorm: 0.000849691177 xtb: 6.5.0 (97a52f5)
C            1.42848593855040       -0.06792560449135       -0.76891502333247
O            2.73906827412778        0.29169984771100       -0.45479983302825
C            3.61525675079154       -0.36641749460054       -1.26499709925405
O            3.29710209620812       -1.14884515517270       -2.13273433801647
C            5.09523982091752       -0.07384662626897       -1.00655276489094
N            5.56330118709179       -0.82734072060869        0.10923725857717
N            6.74330915679729       -0.66708006073062        0.42270965687888
C            7.48105247893116        0.24250645062225       -0.37115297949364
C            7.44712057828811       -0.26064719144126       -1.83721099356814
C            6.89940718726743       -1.64793695769760       -2.10792488407523
C            5.98714745417787       -0.44717996190696       -2.22939051023350
C            6.78554068469575        1.62565349450953       -0.29167779969651
C            5.68200174085406        1.81950996526840        0.72978474123334
C            5.32775904901158        1.43419508814006       -0.68927142075662
H            0.74365866002608        0.45505539126987       -0.09700017574564
H            1.31347217179502       -1.14801680338600       -0.64842036255000
H            1.21671531850318        0.21060094968347       -1.80422333092546
H            8.51257249059637        0.29257718469992        0.00952459154494
H            8.11914768510483        0.22642565608405       -2.55427343752716
H            6.74861583406717       -2.31356875966967       -1.25875598730745
H            7.20818098854836       -2.16515586446366       -3.01806973057888
H            5.64925974147678       -0.10198571803190       -3.21302716407178
H            7.32413727621194        2.48536714357339       -0.70857546292684
H            5.44859315259486        2.83019354012338        1.06934638002683
H            5.56066284952084        1.06169222078773        1.50311691227237
H            4.85999143384416        2.16009998599729       -1.36401624255481
