90
 energy: -18.506011297903 gnorm: 0.000761975190 xtb: 6.5.0 (97a52f5)
C            4.37613856997316       -1.96032179250961        0.93804759345744
N            3.03009274116542       -2.32021624928146        1.45643762351266
C            1.98873063753582       -1.70017715975244        0.55350978766566
C            2.06405013204595       -2.00461977755512       -0.89957367221557
C            0.96019064482661       -2.35134617176554       -1.59773965656476
C           -0.29626437266641       -2.41735209811199       -0.98259444320054
C           -0.44608074387902       -2.09673180028862        0.37240084673027
C            0.61856836609771       -1.73665028469191        1.12160954431687
B            3.16460783718307       -0.62091984221414        1.42608762864174
C            2.80795238293328       -0.14519183349765        2.91275043278893
C            3.36838677338257       -0.74689182691503        4.01480862146509
C            3.03693175533257       -0.30843445993018        5.28117776379841
C            2.14403105103349        0.73405813226143        5.43644684791509
C            1.58530931388332        1.33671584777978        4.32614857019729
C            1.92074569099690        0.89414268929363        3.06209475638460
C            4.45247588875930       -4.63896122368658       -2.46508645281657
C            4.99660777715923       -4.68749966807311       -1.20147925025188
C            4.20725856735554       -5.12391756645470       -0.16470245867658
C            2.88106712075960       -5.50439321199828       -0.41973849777355
C            2.35926661873315       -5.44705758016020       -1.72085784061728
C            3.15719531928777       -5.00832472378307       -2.75009283208222
O            3.66581483414569        0.53973539866057        0.59592795022411
C            4.95797311897782        0.43175775207651        1.07245593554409
C            5.30654085235549       -0.88938967862720        1.40055491523701
C            6.55669856490971       -1.14675006228512        1.97785934414988
C            7.43777870591073       -0.12598330871515        2.21626270282323
C            7.12864455005606        1.20315985932812        1.87467463658946
C            8.06192082193861        2.26106552761947        2.10856074731744
C            7.71687796982683        3.57317158114532        1.76612103684722
C            6.45201915404192        3.83476754005276        1.19622846931810
C            5.55950211303876        2.83264629301959        0.96720206748886
C            5.87903235552458        1.50107952949444        1.29231208446397
C            8.65213690182554        4.62110682963723        1.98532571325714
N            9.83175680848793        4.44852205652064        2.53125954906773
C           10.74548846112830        5.54865781724109        2.68503725060587
C           11.26626936136464        6.18246964002885        1.56248095821969
C           12.16036158149722        7.22145318079936        1.69674563018567
C           12.54436520019147        7.64605916693134        2.95352560088479
C           12.02838241809714        7.03044848952729        4.07668611494663
C           11.13458696706781        5.99201001496864        3.94400012415176
B           10.27993470072716        3.04046555632815        2.98987206021982
C           11.66728222760138        2.67571720359823        2.24878437118696
C           12.83568922895777        3.37005890429874        2.46605325057764
C           13.98690565544554        3.02248245749787        1.79043470616669
C           13.96777057637105        1.97532996808457        0.89162059533544
C           12.79607996888765        1.28051473883900        0.66981744649296
C           11.64898366080713        1.63585507658382        1.34968064219971
C           10.42202311408769        3.03546447436283        4.59285629318514
C            9.31023401662119        3.47709898160149        5.27030438110055
C            9.31165894694790        3.52526813833037        6.64896464954949
C           10.43015967646933        3.11876257740444        7.34816154813308
C           11.53981906862432        2.65934357903222        6.66736758739379
C           11.53231362063864        2.61506694930269        5.28828915069222
O            9.27207537696747        1.97703705236651        2.65553889696268
H            4.48636509388235       -2.16778592201176       -0.12279938226903
H            3.00765580641162       -1.91769987378239       -1.40509448761162
H            1.04198769002472       -2.57405643848137       -2.64905557089803
H           -1.15874458577106       -2.70166120850268       -1.56176460738663
H           -1.42657867932817       -2.13412976313720        0.81819927550304
H            0.49876071203941       -1.48784841344697        2.16064064780996
H            4.06286012762717       -1.55727076211515        3.87628778844333
H            3.47464111568122       -0.77896706310543        6.14660710043348
H            1.88358009876915        1.07792597572277        6.42438994240292
H            0.88933071246015        2.15115480273779        4.44554085032913
H            1.49945331175156        1.35465565466611        2.18484192566852
H            6.01984155545645       -4.38401477147884       -1.03906544171344
H            4.60015755168740       -5.16728908284676        0.83696075858826
H            2.25696642540267       -5.83962583823914        0.39082214428715
H            1.33997471173427       -5.73903773247627       -1.90922573965951
H            2.78591478990318       -4.94878704057929       -3.76203920075279
H            6.82086489976027       -2.16281180520191        2.21445246610077
H            8.39652182572482       -0.32744758000548        2.66124076679000
H            6.19959509517811        4.84951462489154        0.94090117506009
H            4.59658023346777        3.04035794456388        0.53413611718714
H            8.38478910321145        5.61776033581625        1.68747269829678
H           10.96965249676334        5.83764165135172        0.58739978308325
H           12.56335675507634        7.70111139228635        0.81992912015146
H           13.24582075644692        8.45754875393820        3.05761921193898
H           12.32642777852591        7.36156057564455        5.05800239187732
H           10.73253037440646        5.50730378327197        4.81449550699222
H           12.83924968606198        4.19434218180758        3.15679460796266
H           14.89835231526400        3.57150762777815        1.96173764960366
H           14.86553339924398        1.70254960783744        0.36148026061111
H           12.77564237935739        0.46369170328268       -0.03283522937263
H           10.72645052992687        1.10665513727669        1.18742557135125
H            8.44703719009841        3.78719881876366        4.70764377950982
H            8.44177738216838        3.87924959520344        7.17742930678826
H           10.43555744987756        3.15558014131866        8.42525244870151
H           12.41123651562261        2.33500313137012        7.21219643373288
H           12.38927474442872        2.25069717402733        4.75015860715381
