111
 energy: -20.926927488599 gnorm: 0.000672509211 xtb: 6.5.0 (97a52f5)
C           -4.06301695759824      -17.10473768269391        1.10175023766991
O           -3.80816355549275      -17.76606685229820        2.30363769553910
C           -4.84163889654067      -18.59696649830682        2.60810488777992
O           -5.84988717811583      -18.72828010672090        1.95021361001278
C           -4.67351278511269      -19.39472652674140        3.88470479400876
C           -4.55535854527114      -18.48513371229942        5.10529017455988
C           -5.76332368808903      -17.62737343745800        5.31661573889449
C           -6.82707162145149      -18.08749642317492        6.10873831993631
C           -7.97155979764106      -17.35307486177484        6.28502135931350
C           -8.09200670822855      -16.11198748516280        5.65335466838810
O           -9.13820927191271      -15.20090362278303        5.66036838837981
C           -8.75085889741497      -14.15027808278617        4.85938093946823
C           -7.44202292983332      -14.37943469246053        4.33667982017124
C           -7.01874356929161      -15.64870220337895        4.85197925953948
C           -5.86496503459125      -16.40610767789662        4.68358442138699
C           -7.06771707123609      -13.29581572267384        3.54005640159624
C           -8.15150939996245      -12.38851147211024        3.54388080570806
C           -8.27023398054173      -11.11817029808687        2.92266472586454
C           -7.20753398302137      -10.55798092403185        2.09172957270766
C           -6.48733279861521      -11.35641547793488        1.18587454358025
C           -5.48194250345789      -10.83219320107120        0.42660716442176
C           -5.11954110620163       -9.47758279202079        0.52679147832479
O           -4.08157827523732       -9.03500105185692       -0.27075237886008
C           -3.74620054864726       -7.67556794747022       -0.11393600570448
C           -5.83890782713361       -8.67662961830815        1.43120539779682
C           -6.85321317736900       -9.19982326708480        2.18118793113855
C           -9.48134951476409      -10.42098243138424        3.16823104349980
C           -9.95341785287089       -9.21050942966223        2.61120735068330
C          -11.22943729935126       -8.99178953412099        3.13481654163598
C          -12.36530404489706       -8.11588718172896        3.11760327807069
C          -12.65107175168338       -6.94008804686976        2.43338184480609
C          -13.87110117054259       -6.32387181543148        2.62139476292543
C          -14.25711469346513       -5.06754000385339        1.89434711778513
C          -13.30595879919092       -4.61924680199425        0.78259284081418
N          -12.03155300219772       -4.14573315977388        1.30442407919348
C          -10.82706649121344       -4.63265890212130        0.81931250363524
O          -10.80011364824757       -5.66413021971919        0.17015908382891
O           -9.72563641968256       -3.87603264683841        1.12465513366767
C           -8.48422846380237       -4.33454074228492        0.52612482322092
C           -8.14254678383017       -5.74179386123086        1.02852694300643
C           -8.60601520216530       -4.31699253942571       -1.00350262807490
C           -7.38327246841505       -3.35649027710023        0.96345403362873
C          -13.93394196791817       -3.52168431009388       -0.04940002521934
O          -14.20207723141206       -2.46440396862303        0.47412910577175
O          -14.15724122727128       -3.82709426421109       -1.35837912596361
C          -14.72401654553406       -2.73624400436387       -2.01599472454112
C          -14.79279558315562       -6.89282734083006        3.51586709316111
C          -14.53117127575861       -8.05369102653355        4.19653661838701
C          -13.30666799023122       -8.69738783638817        4.00280087460787
O          -12.82084799018646       -9.87700029386011        4.54668891266941
C          -11.56492872887827      -10.06429351300569        4.01652319592451
N          -10.48724847922949      -10.90031857361554        3.99420586747117
B          -10.44209718910456      -12.24321553866192        4.72314535598857
F          -10.47480350329473      -12.02122827911743        6.08714145996880
F          -11.50243546169727      -13.02428991382649        4.30205250385500
N           -9.13054370872888      -12.93901672854452        4.35864558558759
N           -3.52811121400382      -20.28078327486559        3.76999706314388
C           -3.34346463051353      -21.33300272098201        4.64803144763329
O           -4.20188587440388      -21.60345203288077        5.47012612575162
O           -2.15549458283288      -22.00217109622553        4.51257297452857
C           -1.97398283571411      -23.12122285169471        5.42159514718592
C           -1.98489178777673      -22.62622189192650        6.87369974291192
C           -3.07230613462695      -24.16781457551941        5.19197586344891
C           -0.60472007817318      -23.74178323739807        5.10440973741418
H           -3.24151788732498      -16.41539574005378        0.89394127954919
H           -5.00142008552968      -16.55170892974065        1.18582891038092
H           -4.14285284110217      -17.84154701714211        0.29897963056447
H           -5.55797494266422      -20.03782565708986        3.99745532932159
H           -4.37305310776507      -19.09631585410997        5.99501753011808
H           -3.67015766836045      -17.85297257905187        4.98772097786009
H           -6.73570535357153      -19.05090115046042        6.58055552336374
H           -8.78285940599158      -17.71425568897019        6.89127056464013
H           -5.07431450649483      -16.05052313567146        4.04859548769639
H           -6.11424773077720      -13.16764158856728        3.06169051323029
H           -6.76783166426416      -12.38810411494048        1.06487355543686
H           -4.94222476664482      -11.44862684451889       -0.27043221561440
H           -2.91153534798658       -7.45075255129336       -0.77980764965801
H           -3.43980430772752       -7.48598117114640        0.91605199798686
H           -4.59714239690336       -7.05018659871741       -0.38772826579362
H           -5.57726771178187       -7.64106659899781        1.54640203718221
H           -7.36734746124287       -8.57882994558070        2.89388048905578
H           -9.46106306697680       -8.59919063453101        1.87793536586163
H          -11.92643870424503       -6.53273936286411        1.75477190779060
H          -14.35082738243001       -4.24961137556434        2.61461203375804
H          -15.25649432213217       -5.20433314186713        1.46745116392522
H          -13.09661952376708       -5.46649653773729        0.11372091256523
H          -12.07335448862881       -3.20682070199555        1.68832902706635
H           -8.90934608940539       -6.44975821948614        0.72084492121002
H           -8.08866135933407       -5.75431568162609        2.11552869368819
H           -7.18813020103955       -6.07792874269074        0.62772741439224
H           -9.38752415115047       -5.00147289596000       -1.32877601906142
H           -7.67153168986384       -4.61252208086615       -1.47782065358621
H           -8.87004593531058       -3.31979923909509       -1.35062150149980
H           -7.30481643426226       -3.33883710135401        2.04892023185581
H           -7.62192111872040       -2.34760103815036        0.63206807084767
H           -6.41556506628705       -3.63697552255841        0.55045009307746
H          -14.89870004598960       -3.00294638029926       -3.06089715397112
H          -14.03835559326973       -1.88745782512352       -1.95778327527325
H          -15.67028862962906       -2.47864399939520       -1.53421084969470
H          -15.73823177885433       -6.39806821102266        3.65975958268541
H          -15.24929824219194       -8.48443991064820        4.87107723366137
H           -2.76591409701994      -19.94794906898798        3.18672006787392
H           -2.95035526885622      -22.18688627295878        7.11773675424535
H           -1.22343310818453      -21.86218937446818        7.01867823118758
H           -1.79382479743040      -23.44149680398141        7.56973670797575
H           -4.05140930962078      -23.74373508207009        5.40717677609438
H           -2.92779228273941      -25.03827239412934        5.82996229564862
H           -3.07147682075916      -24.49567149424732        4.15415457568992
H            0.18366172816384      -23.00325878122997        5.23722137863912
H           -0.57355050604555      -24.07658001618022        4.06922518068262
H           -0.39486278891509      -24.59295043962913        5.75035163216885
