54
 energy: -10.295261986598 gnorm: 0.000597331310 xtb: 6.5.0 (97a52f5)
C            5.62366220169276       -2.61950724358814        1.84574586230698
O            5.18594667895667       -2.60700994221451        0.52100153805609
C            6.25442402044053       -2.61693969478898       -0.32466797450259
O            7.41484522058257       -2.62074632721026        0.02252030433599
C            5.93036483546025       -2.65832169562484       -1.80518299577518
C            4.66893255577266       -1.86209962475306       -2.14492282563530
C            4.83770098352316       -0.38339974375343       -1.97879594625407
C            5.13946604344103        0.42333154314902       -3.06448559581077
C            5.30822779401163        1.78284603091926       -2.90409014411959
C            5.18226374671215        2.35220672814127       -1.65463685180740
C            4.89356772509436        1.55927092624321       -0.56462076118502
C            4.72708696450775        0.20050839909901       -0.72747708483720
N            5.79916462489143       -4.06006045411434       -2.23880928832457
C            6.42428493355623       -4.63803239457279       -3.32872756576440
C            5.69833990632813       -5.40298513743920       -4.25312607516920
C            4.26604029354979       -5.60642959440839       -4.07047998216170
C            3.52268948029113       -6.57098261116559       -4.93979970343567
O            3.62621484377442       -5.01271084894861       -3.22298108455465
C            6.37557910567583       -5.93300743336352       -5.43200110230769
O            5.74542803052416       -6.58292988594887       -6.25843872709029
O            7.72119942314477       -5.69012564820688       -5.63334058837040
C            8.44241000087380       -4.99475443486433       -4.67905686349190
C            9.80955180609321       -4.82846491524167       -4.87391562930925
C           10.61657716116175       -4.19304043759850       -3.93916117496278
N           11.99586233202102       -4.04184404151454       -4.15441254130623
C           12.64165237111865       -4.54906069905158       -5.36553351764238
C           12.85859737237056       -3.39787861501930       -3.16366941506810
C           10.00764388350453       -3.72381954963243       -2.76425142522868
C            8.66422299388782       -3.86550636037240       -2.56268229378188
C            7.84131931975195       -4.47235496464342       -3.51856663386858
H            4.75639731991778       -2.59034051637819        2.50907541150756
H            6.25768883349778       -1.74810461749072        2.02479828941250
H            6.19662679748854       -3.53218770678815        2.02474182780770
H            6.76902262981443       -2.21108968529873       -2.35437968889441
H            4.36413919755630       -2.08610127948729       -3.17212380576424
H            3.84849704211034       -2.21063414292319       -1.51048700671640
H            5.24265771663323       -0.02239642207344       -4.03898345603202
H            5.53807601319927        2.40092912428220       -3.75626890805034
H            5.31229992838290        3.41476544932766       -1.52951497466826
H            4.80145210614756        2.00002012353516        0.41434519918967
H            4.52501204758736       -0.42782565728905        0.12248205699691
H            4.84411292377323       -4.35220664713093       -2.04885547886464
H            4.00088434970073       -7.54989935070707       -4.92960652946631
H            3.49667793798830       -6.21828969834085       -5.97029817080987
H            2.49798897602212       -6.68347108601001       -4.58858157410192
H           10.23668671689152       -5.22535161733884       -5.77445953175581
H           12.52143788376028       -5.62866292846444       -5.42557138932230
H           13.70565549693574       -4.32441683000244       -5.36644032769756
H           12.19707045814644       -4.08793361570772       -6.24486424109752
H           12.53308071047722       -2.37311472054717       -2.99786523747347
H           13.89308808390424       -3.37614631086389       -3.49841076926180
H           12.81748141815079       -3.94505434837507       -2.22422368371185
H           10.61045172328753       -3.25183530776542       -2.00949205069127
H            8.23281703587911       -3.52732353757664       -1.63728987356085
