44
 energy: -7.597564124903 gnorm: 0.000944206291 xtb: 6.5.0 (97a52f5)
C            3.33840543429675        1.98054741918123        0.50721891449346
O            4.71275796571963        2.24613536781455        0.65145292614936
C            5.49578168585527        2.05173119208011       -0.46608125777913
O            6.69454996842691        2.24620222316773       -0.43703895272709
C            4.93945239248590        1.52899933577205       -1.80376235060914
N            3.57817335994834        1.86960217224361       -2.01938987612404
N            3.07812636453209        1.46949505699602       -3.07443989718015
C            3.93482327979731        0.74317231092735       -3.94473865716107
C            3.23596497092619        0.29422904058838       -5.24217342161227
O            3.95551588571993        0.17081934107658       -6.21274703204998
O            1.89125092441234       -0.00153719352085       -5.30743535387549
C            1.14937969491676        0.19330200818649       -4.12717001012127
C            5.13315368883663        1.67752254185049       -4.28861721613527
C            5.75814112662020        2.13495532296521       -2.98650187551669
C            5.17064638813634        3.18214191071961       -3.95165935373961
C            6.17836839180313        4.03443262971119       -4.72840180513315
C            3.89087012672864        3.95849661520820       -3.60362516086163
C            4.40379272511134       -0.52344732867012       -3.13760589129480
C            4.98164079971197       -0.03934389347614       -1.81216052472654
C            5.83572809474987       -0.94483147502702       -2.71536190379436
C            7.13546280968785       -0.43902992572622       -3.35285466228165
C            5.99193356917191       -2.39166254991714       -2.23413285456615
H            2.86612459163759        2.05604419903275        1.48789660461979
H            3.18482105819654        0.97613633039952        0.11215570328494
H            2.89415023221908        2.71995149111766       -0.16060375976220
H            1.60774447391253       -0.34336893706329       -3.29642933659163
H            0.13904308937106       -0.18712288694534       -4.28477181537385
H            1.09828269170805        1.26008109173857       -3.90446868984563
H            5.73631181973990        1.36124240252567       -5.14415057821238
H            6.84353736843839        2.12737717381747       -2.85697703353842
H            7.07980800436790        3.46767160718506       -4.95834764645758
H            6.47227169053664        4.90863637093352       -4.14853481708007
H            5.74988641947794        4.37638679090209       -5.66983665987522
H            3.77663779830907        4.05276163716113       -2.52406303717537
H            3.00947729230472        3.45090345442229       -3.99423238600091
H            3.90721629426106        4.96378513140107       -4.02491327265253
H            3.64008970403921       -1.30226943359118       -3.09438359157749
H            4.58318303998976       -0.48736772921529       -0.89943752504411
H            7.80600369057049       -0.04310969920351       -2.59007923844726
H            6.97779311466986        0.32504473375504       -4.10432022026792
H            7.65534387802012       -1.25591089321931       -3.85396032836993
H            5.08668568617695       -2.74577787582327       -1.74231866850809
H            6.81267100504071       -2.47489513788412       -1.52257025371584
H            6.19724740941723       -3.05768194359774       -3.07149723276247
