42
 energy: -8.772701866817 gnorm: 0.000956426713 xtb: 6.5.0 (97a52f5)
C            1.43290385392929        0.49866519872644       -0.76923580472750
O            2.82702520005275        0.48235735395769       -0.78825138611730
C            3.32559736839835        1.18316194115302        0.27644842172617
O            2.62770544620159        1.72570297374910        1.11159361218633
C            4.79176580189597        1.23679744490369        0.34755905029771
N            5.57693654201733        0.62722103056709       -0.59038828835181
C            6.90366902248334        0.81539279958443       -0.30960543198657
C            8.02937768318756        0.31924222696111       -1.08269089067640
C            9.33871987047285        0.56356318236446       -0.66782633879746
C           10.40863740733899        0.09945877053120       -1.39074699031375
C           10.20135978551845       -0.62160583031985       -2.55186017992238
N           11.33997508871136       -1.11144269622398       -3.32518160086161
O           12.48374497053770       -0.89000017672382       -2.90344778602159
O           11.12244124008703       -1.73051173491419       -4.37643160310615
C            8.90994278062870       -0.87308557585307       -2.97779359874310
C            7.83630172235855       -0.41133924312649       -2.25529075004283
C            6.96100181295085        1.58374995237941        0.87053081584465
N            8.07494267578558        2.02107535014120        1.53388862694438
N            7.93109424722794        2.70930339349521        2.58617000265405
C            6.68414410227717        3.03320261512487        3.08502271294205
C            6.60656545349406        3.80019813089233        4.25385855547668
C            5.40410738446105        4.15377119978844        4.79354923709963
C            4.19723259604523        3.75747472712716        4.19049973728884
O            2.92684917326631        4.07421143640565        4.67306360846365
C            2.90632697414958        4.84539422576832        5.85056972670569
C            4.26750476069309        2.99678401924979        3.03309248575403
C            5.48629082596528        2.62894505689292        2.47157955581447
C            5.64703562318298        1.84843176788238        1.28206883786475
H            1.06169971668335       -0.09494563900505       -1.60779738489302
H            1.09042629831587        1.53224494274898       -0.85821762724944
H            1.08486406328921        0.07409827785103        0.17556297311192
H            5.18769940894994        0.11385891911407       -1.37961005680417
H            9.50068666703339        1.12519209652936        0.23372111106422
H           11.41906577956827        0.28961252828739       -1.06975180716745
H            8.76419972039315       -1.43582323194751       -3.88475524204191
H            6.83615718921562       -0.61395157565605       -2.59375252608093
H            7.52544863528543        4.10768784499435        4.72285713368205
H            5.38270529430116        4.74288023800867        5.69230089510612
H            1.86378287734935        5.02256743821202        6.12025751077625
H            3.39671113631602        5.80395239451812        5.67247885101000
H            3.39603258747153        4.29863114889098        6.65820507732591
H            3.34910121251626        2.69070507697162        2.57050675476566
