39
 energy: -8.475892384676 gnorm: 0.000749360958 xtb: 6.5.0 (97a52f5)
C            1.85934996086497       -2.51311382662873       -1.91530907782705
O            3.13123362699284       -2.04343527523403       -1.58567499113412
C            4.09327765201277       -2.76876075006562       -2.23924552267612
O            3.84719227847912       -3.69192278071368       -2.99478159322402
C            5.47263580687830       -2.35162428816588       -1.96172767676403
N            5.78139274411674       -1.36192678236043       -1.07072292119148
C            7.13776445111569       -1.17405300433184       -1.00174079489428
C            7.83244182910105       -0.20886598431824       -0.16391773478388
C            7.13345798434232        0.63575088786872        0.69664952950793
C            7.80068658174211        1.54638390991675        1.48438448851248
C            9.17733231256271        1.63432448536722        1.43033959502589
C            9.88682467850012        0.80603525663622        0.58462142410415
C            9.22158013076099       -0.10421658705430       -0.20200560194065
C            7.72490176587905       -2.09462519830539       -1.89526022393257
N            9.05860013656714       -2.28492895473338       -2.16622760684245
N            9.40825708878438       -3.17499092936850       -3.00395019305473
C            8.45073602296438       -3.93109101644722       -3.62954850872668
C            8.62885609681006       -4.96361512111402       -4.58990029171122
C            9.76859290869286       -5.51619169072583       -5.18259612345176
C            9.60813648791145       -6.52407412002405       -6.09462531641950
C            8.33182329831087       -6.99395837228176       -6.42988503365745
C            7.20646223870909       -6.46241158517033       -5.85965219843431
C            7.33833815479666       -5.42931296285100       -4.92328663291229
O            6.38742846202686       -4.72466938364239       -4.21081042324928
C            7.07225847489965       -3.81969402062299       -3.42974198959524
C            6.68429498349463       -2.82654588515116       -2.48998646502712
H            1.11153403582123       -1.91428308968712       -1.39077916402095
H            1.77514040531926       -3.56013086309179       -1.61519486538389
H            1.71428773842594       -2.42721256403214       -2.99469808145927
H            5.07290818332371       -0.84991471852872       -0.54853235518117
H            6.06150404969990        0.57108939668501        0.74425550109416
H            7.24697734451349        2.19261281020508        2.14578981176148
H            9.69712184313026        2.34814099944286        2.04820688596286
H           10.96165060677320        0.87308190795721        0.54122757851051
H            9.77070646358338       -0.75153943569679       -0.86030307842627
H           10.74272123333011       -5.14573718582558       -4.91614514925537
H           10.47412645582042       -6.96293221993161       -6.56210693781091
H            8.23588130545988       -7.78916104045247       -7.15088583920968
H            6.22411417746616       -6.81843001748832       -6.11355242227972
