49
 energy: -10.013265061518 gnorm: 0.000677028365 xtb: 6.5.0 (97a52f5)
C            1.03708667394151       -0.22658020251850        0.67344144410164
O            2.39639445056405       -0.30488515404208        0.38123074306049
C            3.07961960004231        0.66961261545282        1.05499513539794
O            2.54967796115485        1.48440457230906        1.78708061146708
C            4.55180015105948        0.70224562753016        0.86158844365048
C            5.53766053547015        0.84752031216305        1.88117409890932
C            5.28461120118193        0.92288749671748        3.32610873334377
C            5.87948590083462        1.88722932443053        4.06493966260133
C            5.63756730827205        1.99920260332784        5.45641219048151
C            6.21802335666358        3.00385892174705        6.23879141496955
C            5.94516017622831        3.08833937471245        7.57851001869024
C            5.08595493312247        2.17443519841685        8.17397175650541
C            4.50709113496793        1.18292015669970        7.42750186362156
C            4.76687892867623        1.07068870888316        6.05827726174456
O            4.16887369305218        0.04993450964005        5.33872506491309
C            4.42798749237194       -0.07163649610014        3.99081625692725
O            3.98475995444924       -1.00206082619063        3.33634728175177
N            6.74800242410614        0.92092661612985        1.34815178276941
N            6.57864529561864        0.80005577888521        0.04050604785727
C            7.69357954330330        0.84235822132247       -0.87798847038711
C            7.85948824492117        1.91560524285479       -1.73758607739384
C            8.92835472166436        1.94749670791119       -2.60275701585908
C            9.83971837743485        0.91142268820132       -2.61571486347717
C            9.69480460947258       -0.17130051252057       -1.75965317376552
C           10.66973209722168       -1.29603261091192       -1.76594862013890
C            8.61647699141753       -0.19006672240166       -0.89314033865973
C            5.24392909477833        0.66660484011999       -0.32655309848810
C            4.71995892621140        0.59653007779139       -1.70225376320251
O            5.40940939033810        0.13397102960370       -2.59254950598042
O            3.46167824765767        1.09460867574377       -1.90580772201206
C            3.09631431372433        0.95752530406731       -3.24367819171996
H            0.50869619981729       -1.00363105333284        0.11611529513419
H            0.66660877377954        0.76023273180313        0.38399103406254
H            0.89707524168486       -0.37400043341333        1.74767894753431
H            6.52967679964839        2.59424101590070        3.58316692646930
H            6.88083342663127        3.71347626308949        5.77411986575467
H            6.39617419867487        3.86610667798155        8.17252454534210
H            4.87469617680567        2.24642704825830        9.22838350586841
H            3.84154043191926        0.46897461163367        7.87975508542797
H            7.13881265716492        2.71486816970042       -1.72215224411203
H            9.05226793079370        2.78199869142737       -3.27367841588097
H           10.67375542571896        0.93802775119499       -3.29556685284059
H           11.45600838322784       -1.13751327069878       -2.50424346086638
H           10.17260388652661       -2.23653870590997       -2.00521861559625
H           11.14455496222327       -1.40160449044706       -0.79017907967417
H            8.48301397281389       -1.01862944644997       -0.22134056453093
H            2.08332564200354        1.34390619360552       -3.37599948106086
H            3.13074122909646       -0.10060816695566       -3.51485853256414
H            3.79655893154644        1.52088433263806       -3.86487693014594
