49
 energy: -9.079598510747 gnorm: 0.000652903264 xtb: 6.5.0 (97a52f5)
C            2.24831716068270        1.17938827825699       -0.21052224616833
C            3.33968757673711        0.66467867457381       -0.31413640047235
C            4.60565582406010        0.04405429915342       -0.40342319747525
N            4.82476375615216       -0.95767706750954        0.64840138499665
C            4.69053739501428       -2.32534308918225        0.45862497536854
O            4.45258401804358       -2.93328248795127       -0.57290539464432
C            4.89551622941654       -2.88588614445529        1.79811970882260
C            4.90330769932241       -4.22934482040582        2.05858745324465
C            5.03662144363625       -4.86633264603646        3.34412808621622
C            5.68132712816475       -6.10749365822628        3.40431520092086
C            5.92858203438882       -6.77165185990002        4.59521052667836
O            6.60379894880934       -8.00717059408021        4.51379815950583
C            6.51044709653505       -8.86643362272901        5.66930327224832
C            5.08240216150340       -9.35928946136022        5.87555658362236
C            7.48237095170697      -10.03177737389806        5.51844162443928
C            5.51255457833889       -6.15951732834844        5.78318259330908
C            4.83985070983332       -4.96672604683216        5.75786305106869
C            4.54411224857806       -4.30927030944665        4.55881464182667
O            3.72644221369925       -3.16211846543803        4.63470880905233
C            2.48833731888444       -3.24682738755276        3.88898497336669
C            1.51814027930348       -4.20709814132579        4.56372826677277
C            1.88948387007082       -1.85711660134432        3.71893808737958
N            5.14792635044921       -1.85108910079780        2.67333941058020
C            5.08135492335472       -0.73593435804141        2.00332676774899
C            5.28835517237576        0.60321840447455        2.59371447417778
H            1.28660659179161        1.62990298574760       -0.11771378021853
H            5.40826606853075        0.78640067805897       -0.34610010191696
H            4.71301542067844       -0.45956068932411       -1.37012614035069
H            4.86304732795281       -4.87637865796969        1.19834480242389
H            6.03064011985276       -6.56093939325429        2.49516823154510
H            6.83177121203152       -8.26319849166607        6.53336313364225
H            4.75789430777415       -9.93549678129623        5.01033048734471
H            4.38462164946094       -8.53116114570241        5.99308286449648
H            5.00202322197406       -9.99915819924048        6.75445343800698
H            7.21935985812856      -10.62787227608449        4.64580654526212
H            7.46840073873698      -10.68558830670704        6.39087295036001
H            8.50102545736388       -9.67263802419446        5.37340870637965
H            5.71230049844931       -6.62903198109882        6.72843583180896
H            4.49044097155300       -4.52207266453168        6.67282478257063
H            2.75024081747444       -3.64288447718113        2.89514529031710
H            1.28023498813462       -3.85647066017623        5.56707808371909
H            1.95137289269480       -5.20274286202116        4.65844684387002
H            0.58490800765632       -4.29299525341687        4.00656387179245
H            1.64785233471579       -1.43159472676492        4.69180364470863
H            0.97800858977924       -1.87897768906136        3.12110241786481
H            2.60108541567655       -1.18693132479888        3.23782747444467
H            5.26184223654380        0.54973400500316        3.68159014479116
H            4.51066849794880        1.29408859355245        2.26948959600629
H            6.25416568603762        1.01106825053729        2.29697006849330
