88
 energy: -18.923225455809 gnorm: 0.000328122944 xtb: 6.5.0 (97a52f5)
C            2.51635156785926       -0.56190070728069       -2.29454541781583
N            3.41206860871696       -0.71637639189909       -1.34874001553877
C            3.54720320164166       -1.94731665870181       -0.62251692200302
C            2.43064026154196       -2.54992641293771       -0.05394540474254
C            2.55429292203531       -3.71743091965219        0.66615902783097
C            3.79438021972654       -4.30251316620253        0.82888917319801
C            4.91117980953541       -3.71548829289663        0.26840205586752
C            4.78821818074256       -2.54846809393118       -0.45098494670267
B            4.33960053199990        0.46142881354749       -0.98358273282949
O            3.83353808965865        1.77486477066578       -1.49440055553314
C            2.94516564202952        1.82753914951269       -2.52182137049372
C            2.28281333598438        0.67180618068668       -2.96092139198616
C            1.36320930890903        0.76207400484722       -4.02592533325407
C            1.10401614552243        1.95228623113772       -4.63559677859978
C            1.74450545432722        3.13331200379394       -4.21571297332994
C            1.46711306755608        4.38392836975442       -4.84332297477897
C            2.11947423775035        5.54144753602748       -4.39310735425431
C            3.04563478675951        5.44938603793271       -3.33428284777922
C            3.31746845806934        4.25580405294477       -2.73738842535590
C            2.67396833512916        3.07601508138159       -3.15596179605211
C            1.80184131214851        6.79487162650051       -4.98369013164713
N            1.02325032067101        6.92508802111230       -6.03138212132609
C            0.63286118661336        8.21191634331539       -6.53210376958967
C            0.70714067361788        8.50817315993592       -7.88759006658469
C            0.31238941018729        9.73910016348066       -8.36072684757232
C           -0.16436887212195       10.69526591936757       -7.48627159462183
C           -0.24441193969003       10.41518820564890       -6.13658970191408
C            0.15102946758804        9.18408629030642       -5.66255935120422
B            0.50231764498642        5.65701529381103       -6.73975595981172
O            0.57083751338678        4.44305149542753       -5.86435963138993
C           -1.01761981158235        5.88510234493232       -7.16356567042027
C           -1.92150722342752        6.12285052481682       -6.16160765816135
C           -3.24722945848608        6.35871097727753       -6.46363696924795
C           -3.65871725279839        6.35214426932215       -7.78185342480181
C           -2.75180749603714        6.10910693511402       -8.78799284343971
C           -1.40747552146025        5.86799314337717       -8.50090985627887
O           -0.52963457902156        5.62735966431629       -9.56329188421378
C            0.82506788632099        5.38371383727103       -9.31140543514057
C            1.66815946288050        5.14024564125438      -10.39669858553090
C            3.01160500054038        4.90652392473226      -10.21254240694419
C            3.54749134742481        4.90998688177842       -8.94007431529588
C            2.72830217590562        5.14988539226547       -7.85621976025618
C            1.39022326173542        5.38362591948120       -8.03734710324788
C            4.45715567985570        0.55292469566228        0.60346786904918
C            3.30198756551702        0.76613424845675        1.30886425824872
C            3.33223187997801        0.83437554519742        2.68680866009659
C            4.53413062112679        0.68894320670893        3.35115642594409
C            5.69495944298875        0.47895587108753        2.64233866398847
C            5.68311346806050        0.40695952178522        1.24856160405775
O            6.89274876399410        0.19090988506913        0.57950187318792
C            6.91309120846831        0.08946781580540       -0.81603327970275
C            8.13301164504866       -0.15890768654573       -1.44679990520113
C            8.21101926672651       -0.28555154119520       -2.81480637017216
C            7.07341777594809       -0.16573450614920       -3.58826280733133
C            5.85917436746801        0.08047941060885       -2.98121384929146
C            5.77972443074486        0.20472205584038       -1.61892693831382
H            1.92356663070285       -1.41488476386701       -2.56737067080287
H            1.46923216997379       -2.08165431770273       -0.17271895534838
H            1.68227569034925       -4.17328326301146        1.10569474244806
H            3.89068655368115       -5.21519159871737        1.39379656167309
H            5.88046955764437       -4.16883138747570        0.39659872211221
H            5.65583411126845       -2.08680262229972       -0.88442373939812
H            0.85945621017265       -0.13147518669541       -4.35219748520872
H            0.39918747291818        2.01306240669597       -5.44655104074429
H            3.53892412958395        6.34513759372248       -2.99823023638826
H            4.02586475732650        4.19331797985416       -1.92967074240479
H            2.21020699886694        7.68757808307137       -4.54811091767175
H            1.07128838416798        7.75870107052983       -8.56558666841563
H            0.37269456893433        9.95480929267366       -9.41488764508145
H           -0.47489309117722       11.65846428245605       -7.85666933005068
H           -0.61986964621077       11.15933238163847       -5.45342520945432
H            0.07831596846827        8.95510806545026       -4.61377689315760
H           -1.57823791898250        6.12608704210876       -5.14155925014535
H           -3.95629637901989        6.54838139159378       -5.67482555577445
H           -4.69263891921658        6.53700162095585       -8.02302354613388
H           -3.06341145818322        6.10154537830076       -9.81736674330277
H            1.24189008176367        5.14070745632563      -11.38420245274141
H            3.64668919790335        4.71977645618158      -11.06293453628959
H            4.59912042012984        4.72656738650879       -8.79348485869039
H            3.12762279734433        5.15603548630235       -6.85764654489000
H            2.37649367854109        0.87549766825762        0.77048848757003
H            2.42271389210861        0.99979232844693        3.24035603627091
H            4.56314677610528        0.74166386473360        4.42711438224342
H            6.63560360409776        0.36590949656931        3.15140508535928
H            9.01336776232762       -0.25331053854314       -0.83617286633570
H            9.16188765017984       -0.47878812703516       -3.28370401550488
H            7.13260632139551       -0.26497612570245       -4.65956333967249
H            4.96101923609536        0.17468511261308       -3.56564490595703
