46
 energy: -9.474119018712 gnorm: 0.000532197200 xtb: 6.5.0 (97a52f5)
C            1.00608503288919        0.35344620643151       -0.51124728482190
O            2.36710312350143        0.36676448551365       -0.21864424059488
C            3.03962032152021       -0.46449047538065       -1.07042553168519
O            2.49666011108837       -1.13146841403171       -1.93071351281395
C            4.51527207808945       -0.52466610819083       -0.91261408598343
C            5.48368177603809       -0.47649885088143       -1.95700955402646
C            5.21417967659045       -0.29970643800237       -3.38904193880624
C            5.85040487881741       -1.08112740365867       -4.29136725497862
C            5.59895187184062       -0.95279520006303       -5.67951723769922
C            6.22587826623574       -1.76345917675090       -6.63249220060199
C            5.94110599677424       -1.61959054199911       -7.96478366128417
C            5.02270702902259       -0.66568411325693       -8.38242647641806
C            4.39773996625239        0.13900937911290       -7.46711300690575
C            4.66991260716247        0.01774890706972       -6.10129562773069
O            4.02812771829837        0.85746080759738       -5.20741941585627
C            4.30367413444931        0.75452033903138       -3.86173847449055
O            3.83178662909966        1.53613517272111       -3.05172702810429
N            6.70227356024918       -0.63100489932445       -1.46338596780031
N            6.55657185485843       -0.75390677594181       -0.15415716396935
C            7.70198295142477       -0.96090282328922        0.70006363671867
C            7.75515498655051       -2.02319696619482        1.59343396514150
C            8.87197274379329       -2.22195995570215        2.37838551069591
C            9.94866995843037       -1.36748219232737        2.27595672392431
C            9.90651771459029       -0.31101118669769        1.38145556977939
Cl          11.24768001365954        0.76344827415703        1.24324836754380
C            8.78878893108844       -0.11236102755595        0.59514282327439
C            5.22690276244426       -0.69626147074708        0.25202585540288
C            4.71170120130418       -0.87426297721142        1.62156027093127
O            5.39783329862211       -0.56149074855979        2.57640143265814
O            3.46487079881574       -1.42397237910125        1.74060253210131
C            3.10449983917394       -1.52484115817407        3.08277145306406
H            0.48838092789186        1.01575708093631        0.18696296211993
H            0.63103624948331       -0.66836020815367       -0.41063685224595
H            0.86375996925467        0.70196099025531       -1.53773769501346
H            6.54266210191193       -1.82735248374652       -3.94617059299365
H            6.93463538893851       -2.50544950423700       -6.30610896190367
H            6.42917357726214       -2.24868684361991       -8.69123834820152
H            4.80219126281027       -0.55810233777593       -9.43215390430808
H            3.68649057421909        0.88310803230159       -7.78056249193811
H            6.90683388312606       -2.68101611125813        1.67284301714587
H            8.90154521005365       -3.04508761365320        3.07408523354395
H           10.82813173678797       -1.50843802043839        2.88158885139937
H            8.76649852130513        0.70232973362581       -0.10609611453923
H            2.12361821979237       -2.00157903217586        3.14970672678927
H            3.06469701239522       -0.52144011698803        3.51389124794723
H            3.85111353209545       -2.12487585366704        3.60905844553880
