46
 energy: -9.455883063865 gnorm: 0.000601904593 xtb: 6.5.0 (97a52f5)
C            1.01325551394387       -0.56413037478439       -0.12421918227711
O            2.37447408130537       -0.27374048889164       -0.16713108089181
C            3.05753432042516       -1.08909866300535        0.69220172565956
O            2.52491355320192       -1.92943201651300        1.39259946135339
C            4.53124596904810       -0.91366521033877        0.74313013757108
C            5.51029555622010       -1.94927404827057        0.75344542250492
C            5.25189162386133       -3.39149027291775        0.65673788132313
C            5.86706028892654       -4.24172689379630        1.50994615310332
C            5.62336390900986       -5.63600492269559        1.45861392442205
C            6.22692012169526       -6.53430349204044        2.34571528319479
C            5.95185088295240       -7.87436841280632        2.27437042413333
C            5.06691230841252       -8.35423949681983        1.31825510232088
C            4.46533190889592       -7.49306624700361        0.43944773528543
C            4.72778192550208       -6.12073005362324        0.48598695409088
O            4.10982172942109       -5.28268219419273       -0.42656235321583
C            4.37152241033797       -3.93058700194522       -0.39120601255861
O            3.91112885392572       -3.16896703728881       -1.22676572276999
N            6.72400689879019       -1.43648971302173        0.88467365818848
N            6.56478023920682       -0.12335684068689        0.93182990249606
C            7.69769572085600        0.76061537894306        1.07453440848309
C            7.75039069739188        1.70302575923122        2.09072175435030
C            8.84514345475080        2.52998677731088        2.21513113998158
C            9.89824476675553        2.42405114387254        1.33504348140622
C            9.88034473062145        1.47628793551116        0.30342674220023
F           10.95276991826625        1.36470487562093       -0.60810019212520
C            8.76049666874180        0.64697215818251        0.20028670761793
C            5.23114579567436        0.26550901604100        0.85078514167996
C            4.70343599805277        1.63927597388755        0.94546094324776
O            5.37074071277086        2.57773838557320        0.55174393931970
O            3.46712704587997        1.78101980498875        1.51450179130203
C            3.09310353221301        3.12325540945181        1.53438523225672
H            0.48840662135502        0.09481518415587       -0.82000474294220
H            0.64728752044673       -0.40409316574457        0.89303980264952
H            0.86528840624196       -1.60849233939156       -0.41083999123351
H            6.53588882890367       -3.84894417183188        2.25381828791459
H            6.90979939122927       -6.15902270848940        3.08869847243002
H            6.42146887671060       -8.55835634765728        2.96214107504854
H            4.85389815721607       -9.40964846761211        1.26773694317068
H            3.78016336282082       -7.85552403797203       -0.30664387707799
H            6.91919710130361        1.78684229557931        2.76952370151790
H            8.87449063789684        3.26566242134599        3.00258288198755
H           10.75277551892039        3.07176013689566        1.42782541013338
H            8.72347321714447       -0.09551140418468       -0.57489731418348
H            2.11110474281952        3.21009466796311        2.00545332658800
H            3.05038034438376        3.49427584249571        0.50734242103237
H            3.83310613554926        3.69245285647542        2.10251309930820
