40
 energy: -8.007390852460 gnorm: 0.000990861363 xtb: 6.5.0 (97a52f5)
C            1.15547397993030       -0.39450231581195       -0.29252786485334
O            2.53659973824411       -0.20872100979672       -0.29927272729188
C            3.13350277204317       -1.04991845869006        0.60011020507402
O            2.53260627347671       -1.87965595824496        1.25591799426538
C            4.61547521348660       -0.95254844314672        0.71537198707196
C            5.38683695347952        0.20663341394082        0.97656708369952
C            4.91492428475314        1.56277177955728        1.29629187667685
O            3.74332098077129        1.77494232184085        1.55571152397618
O            5.87510068759946        2.54188834909719        1.29874029993179
C            5.30920767184139        3.77759192929304        1.60944610585619
C            6.72455892054997       -0.18930893545376        0.92815796203120
C            7.92327277369251        0.51097360761845        1.09611776634822
C            9.06304614220965       -0.20507458339033        0.98701974655372
C            9.02985053052465       -1.59989853826474        0.71975999135250
C           10.28855176017880       -2.35485145995797        0.59701830875174
C           10.30357047591683       -3.54292189724623       -0.13005117306479
C           11.46015202673951       -4.27654541114766       -0.26746102481487
C           12.62747054590955       -3.84082960123791        0.32571252440413
C           12.63162919507571       -2.67222907561443        1.06031806414932
C           11.47616547959937       -1.93581145839401        1.19781879553372
N            7.90734896076410       -2.26682213410932        0.54763330677982
N            6.77353021541663       -1.54799983509652        0.66341102896667
C            5.47704520156699       -2.01861654632157        0.54650250510747
C            5.11382123033176       -3.41277542542844        0.24055958009455
H            0.70141382742679        0.28634703333723       -1.01613320066881
H            0.77292768307027       -0.18139122714497        0.70857036520338
H            0.92965657223490       -1.42923914245368       -0.56111856934887
H            6.09749418139812        4.53268789517479        1.64476303609338
H            4.81402927410946        3.71105240825370        2.58085237779579
H            4.57801475731127        4.03849519614166        0.84087505729766
H            7.91293365544888        1.56870594499856        1.28951561395051
H           10.01248404830256        0.29204270944867        1.07738418044852
H            9.38873849887563       -3.87860717957563       -0.58762681819172
H           11.45354459665765       -5.19120149473046       -0.83777718441293
H           13.53361277798974       -4.41468906536388        0.21964648344590
H           13.54150432693064       -2.33701943821438        1.53111514690997
H           11.48460404980664       -1.04121331726754        1.79559915370018
H            5.95240518457851       -4.07967722462570        0.44074463133177
H            4.83730004945722       -3.51824211804319       -0.80859726175577
H            4.26784450230155       -3.73208129393003        0.85042312160236
