55
 energy: -10.402913433498 gnorm: 0.000597127754 xtb: 6.5.0 (97a52f5)
C            0.78936604349928       -1.30418443734453        0.27797536538509
O            2.17563506238865       -1.22608023878469        0.14426983109202
C            2.76595170124580       -0.99158196861896        1.36151483617988
O            2.13833849601615       -0.82071732510453        2.39446560350903
C            4.25675705296428       -0.94184706025575        1.37507941298015
C            5.08721424830974        0.17954103948205        1.55932820033643
N            4.72757686763456        1.52968268329087        1.65731877632398
C            3.69221514213061        2.25569376021818        0.85757374409587
C            3.55367819444417        1.61721425767981       -0.52855505655817
C            2.35973209360762        2.22509881014156        1.60986865594668
C            4.13446902535240        3.71708916271575        0.68752732398019
O            6.38746293129985       -0.22275101877762        1.63338003243364
C            6.41127531516434       -1.59138198825238        1.49381824032699
C            7.66875709418519       -2.33479975184993        1.49762209580339
C            8.86479542675949       -1.62314246350939        1.45705207346527
C           10.07584929856079       -2.27059441635229        1.45111996495483
C           10.14263577250656       -3.66387208926524        1.48817827383704
C           11.44421088627854       -4.36563454298103        1.48846658845522
C           12.52155442119207       -3.87831454711155        2.22876253154239
C           13.73071681331200       -4.53756339483012        2.23336883160572
C           13.89164564526731       -5.69501270643852        1.49918444751555
C           12.83815485850854       -6.19222287526835        0.75914088473952
C           11.62698331369275       -5.53670301692591        0.75286160513042
C            8.94387369393317       -4.37651223603083        1.53541063792059
C            7.73581907994912       -3.72557798991486        1.54309593613561
C            5.10464247999731       -2.06625482298869        1.33563674708282
C            4.63928007803857       -3.47056823072454        1.16429019039363
O            4.88478943563917       -4.31128653396273        2.01149909242979
O            3.94134817433909       -3.73412842818936        0.01411352892771
C            3.55476021200178       -5.07346227507683       -0.02542764414734
H            0.35172915061235       -1.56592997924394       -0.68769528719704
H            0.39831645628905       -0.34035262625320        0.60955324706848
H            0.54162680667534       -2.07195317757345        1.01421341868009
H            5.49951805631979        2.15183096900314        1.86118600786347
H            3.21183623139142        0.58810007687365       -0.45623771212917
H            4.51270039854366        1.61345712592959       -1.04405182326529
H            2.83950298539610        2.16462663644984       -1.14202126927572
H            2.03257149080730        1.20367055995722        1.77961701417807
H            1.58103216567223        2.74398389425618        1.05267464753092
H            2.45992259781865        2.70295295159517        2.58287501626747
H            5.08357238411733        3.77614247909914        0.15696982398021
H            4.25787685052545        4.19998421670357        1.65569217435258
H            3.39723173364221        4.28439869146573        0.12105916316735
H            8.82044020871274       -0.54803585327872        1.42558195033205
H           10.98885519187620       -1.70293446143903        1.40256379703956
H           12.39372484827591       -2.98419202494026        2.81366551993518
H           14.55255247403957       -4.15028132297318        2.81301539919117
H           14.83820107106858       -6.21004169907077        1.50423622265348
H           12.96416803065913       -7.09499710045873        0.18426060352063
H           10.81126926691216       -5.91897446834933        0.16426465124426
H            8.97546064796205       -5.45091799370709        1.58960367723872
H            6.82517864256985       -4.28849688567681        1.61842048103162
H            2.96692244756203       -5.25041947592471       -0.92873271872397
H            2.95242470255228       -5.30089296666228        0.85701236339694
H            4.44476630179484       -5.70647292077070       -0.03400711991134
