45
 energy: -8.217112039076 gnorm: 0.000805988842 xtb: 6.5.0 (97a52f5)
C            0.91409852934061       -1.52960529679491       -0.25331186436315
O            2.28389852355238       -1.32618872997659       -0.41700561961907
C            2.96287114787520       -1.66082184184619        0.72821771533116
O            2.41397215833419       -2.02845175555833        1.75447344888929
C            4.44785372735614       -1.54143434838878        0.67187087695794
C            5.27201634136884       -0.62016994650560        1.34220029430847
N            4.89926550689465        0.47311818852888        2.13695436898211
C            3.78240595169076        1.43955989123722        1.89715930478789
C            3.50626585236067        1.56910979902364        0.39540814997526
C            2.53485010661544        0.96073273583800        2.64417339604068
C            4.19339669613164        2.81510083037167        2.44468626722374
O            6.57982484064741       -0.92707055749703        1.11338152559413
C            6.61420029916628       -2.03278692830469        0.29582847053991
C            7.88112662895122       -2.59992961788508       -0.16878533132520
C            9.04990441430939       -1.87105686376361        0.02909075981590
C           10.26704411785276       -2.35703030025415       -0.39149936674680
C           10.34205027241046       -3.58553522544456       -1.01627544540061
C            9.19469159006209       -4.32663262771587       -1.21367210500967
C            7.97860686601727       -3.84026667932541       -0.79398422273748
C            5.30831850688454       -2.43907081411957        0.00653931834932
C            4.85533281008956       -3.59299893268479       -0.81869135104992
O            5.19078958726099       -4.72821335482018       -0.52930831566192
O            4.06342661329666       -3.28905538494605       -1.89522390696447
C            3.69465224175319       -4.45158972063532       -2.57105206885068
H            0.40696115422760       -1.32467953153730       -1.19870017140329
H            0.53596540391869       -0.85940440362692        0.52138710172789
H            0.73871674551396       -2.56660056986845        0.04199498305687
H            5.67617810448339        0.95034023158820        2.57676976439887
H            3.18852023495981        0.62147221845945       -0.03126105717893
H            4.40487593496761        1.88548079439802       -0.13175347124166
H            2.72291498807782        2.30089584885096        0.20312864613996
H            2.23344901920319       -0.02558557932800        2.30395856431486
H            1.70004299801271        1.64397382782106        2.49492143434597
H            2.73278663749945        0.89321378892300        3.71256169353503
H            5.08471771577746        3.18348890055360        1.93918680466450
H            4.40730511263851        2.76024750051893        3.51095860367331
H            3.39915908158653        3.54607652114925        2.29959219082582
H            8.98254681629686       -0.91547769822339        0.52054401896503
H           11.16246379937265       -1.77878768887720       -0.23171766902880
H           11.29477593429930       -3.96713523349338       -1.34481149906534
H            9.25190730416734       -5.28952010405907       -1.69470719332178
H            7.09068628442030       -4.42867807912048       -0.92638951012409
H            3.02873201684267       -4.18825038057044       -3.39595005493821
H            3.17960217924553       -5.12189961042846       -1.87880665347049
H            4.59004920425993       -4.94312327166376       -2.95835082494369
