29
 energy: -6.076303514469 gnorm: 0.000815681047 xtb: 6.5.0 (97a52f5)
C            1.22917589757382       -0.01431630915788       -0.05438282134939
O            2.61587932139255        0.02345927812448        0.08925367517209
C            3.21337332671133       -0.85447718129688       -0.77995638675680
O            2.57758154498016       -1.55124130557517       -1.55290526090060
C            4.69857124881229       -0.91541059016559       -0.75695763741805
C            5.42439705304090       -0.71290089276434        0.42953124406017
C            4.79778447353511       -0.46625751446140        1.67487915017024
C            5.51961397411291       -0.29387653958686        2.81237157792231
C            6.91724339412094       -0.35335268109051        2.77380912698351
C            7.55919376967317       -0.58640526679670        1.59856893396432
C            6.84669750490951       -0.77821674476575        0.39057871714593
N            7.54707238206531       -1.01360224881624       -0.73036381290773
C            6.85338924542713       -1.20785972782938       -1.86310749665460
C            7.57183223843246       -1.45652207135702       -3.05717332353553
C            6.93516413759202       -1.65932863254976       -4.24098776708994
C            5.53725029367791       -1.62849784726087       -4.30340805904191
C            4.80987188544554       -1.39572033565853       -3.18030675919760
C            5.43119964280729       -1.17722937398830       -1.92722431659388
H            0.77956849768399        0.72310065709091        0.61461571854864
H            0.86841929091976       -1.01406189376399        0.19960676145362
H            0.96880293803695        0.21788769532100       -1.08986225248405
H            3.72575091553247       -0.40492550090926        1.70870474299123
H            5.01839190189555       -0.10584235946456        3.74756242046735
H            7.48261509271067       -0.21205927163972        3.68014046572336
H            8.63347928650236       -0.63292620998128        1.56477417845980
H            8.64617327037246       -1.48062437126912       -3.00531762599865
H            7.50527773769753       -1.84670901953972       -5.13595214656997
H            5.04013534640693       -1.79511065902224       -5.24481427261689
H            3.73607438793091       -1.38983308182530       -3.22757677394700
