52
 energy: -9.810470257007 gnorm: 0.000363062513 xtb: 6.5.0 (97a52f5)
C            1.23985786604625       -0.87432264462457        0.24481567117952
O            2.60088305805843       -1.03093407173347       -0.01798424600749
C            3.07379539194020        0.03719006679417       -0.73182740968698
O            2.39300867138301        0.98332550023753       -1.07938046776446
C            4.51521074442652       -0.00546380820875       -1.08388381399831
C            5.07735710102738        1.01244477852375       -1.83296758535571
C            6.42193201690205        0.98223678627015       -2.18214782688302
N            6.98830160635890        2.00235276177258       -2.92696409447178
N            8.08834147923563        1.84254288735201       -3.47377639089924
C            8.69703946722592        2.87183116471940       -4.16780372712445
C            9.76041742102205        2.61555214262868       -5.02764460258495
C           10.38015009969822        3.62751761037633       -5.72699915450619
C            9.93604192218589        4.95655506946262       -5.56730708451411
C            8.86446339078529        5.22313833015172       -4.69056252667966
C            8.26319553170472        4.18325498095514       -4.01675064645477
C            8.37492063158045        6.62705509328272       -4.48274886095428
C            9.45317648023318        7.67664066917254       -4.78639018415581
C           10.11146468804050        7.40410970051852       -6.13760245834332
N           10.55598897775758        6.00029305155083       -6.26648278123651
C           11.61276747553118        5.74363274020903       -7.26645504198345
C           12.43299902965211        4.50257441683630       -6.92116632358570
C           11.51803968365386        3.29959751703146       -6.65114716481435
C            7.19656657822395       -0.08947280992987       -1.76312552006896
C            6.65358061631773       -1.10850128537913       -1.00433159948778
C            7.51664051919768       -2.22628714755462       -0.55071412886269
O            8.68953129255668       -2.24723131723791       -0.87243695530636
O            6.91095359389890       -3.17751929504103        0.22466184121440
C            7.83083930677567       -4.15955021824662        0.59319654636907
C            5.31035717323174       -1.06192916982335       -0.67003712653046
H            0.88772355455757       -1.72792481662882        0.82804222285018
H            0.69531718841322       -0.82185963141453       -0.70059868905399
H            1.08625481812883        0.04842517023034        0.80876922491365
H            4.46248073809730        1.83401559826758       -2.15080308592941
H           10.09377264834995        1.60080059326051       -5.14753576187718
H            7.44084884420398        4.37848185965753       -3.35348137777355
H            7.50205306732960        6.79394707162750       -5.12430349832852
H            8.01421803595128        6.73603556901763       -3.45237205012273
H           10.21720359860806        7.65174607816038       -4.00000796977994
H            9.02885788955807        8.68970413905748       -4.75936500426848
H           10.97215392251764        8.06295170952645       -6.29331177278982
H            9.41047400960564        7.60726930612508       -6.95286158532070
H           12.25253705981924        6.62881375944532       -7.34497668346793
H           11.12652270534500        5.62240415631102       -8.23923422667555
H           13.03986420642566        4.70631728883421       -6.03083278710689
H           13.14713713693955        4.27531671863902       -7.72455859643300
H           12.09589931314510        2.46759258165803       -6.22996999979727
H           11.10567554521900        2.92746775437695       -7.59608161878792
H            8.23755375634391       -0.12628326692458       -2.02627357281412
H            7.32643387234046       -4.91048801133168        1.20519180073298
H            8.63926258705029       -3.69823346672957        1.16499382098669
H            8.23796290160048       -4.62719329998845       -0.30610324034041
H            4.87990078579691       -1.85417036124503       -0.08306188531148
