46
 energy: -8.555785898392 gnorm: 0.000604533963 xtb: 6.5.0 (97a52f5)
C            1.43968628026847       -0.94714480448328       -0.14696087655449
O            2.72821900957547       -0.52257843369774       -0.46880117815723
C            3.19969312715742        0.33635485815873        0.48843190134794
O            2.55890969642805        0.66707139150254        1.46914238948512
C            4.57139996888408        0.85410322021538        0.25531215805145
C            5.28908818190706        0.44573147123917       -0.82944851935517
C            6.61402426934104        0.92491735443194       -1.09134063558563
O            7.24106500121270        0.53879110442127       -2.07951377943303
N            7.17284618136365        1.84184969055721       -0.19606866280147
C            8.51525835506834        2.33101759981843       -0.44701032593213
C            6.44205110948043        2.27457336184763        0.92317858592012
C            6.86419306186012        3.20258672025498        1.92133351527990
C            5.94180259061591        3.43188403568970        2.90389924322361
C            6.07686330223250        4.32046727067149        4.04587059136348
C            7.16452512582154        5.17397187914919        4.18779769143142
C            7.28888571958172        6.03244742512458        5.27053340391861
O            8.43064604594135        6.85513646119759        5.29146921243478
C            8.31638569727390        8.02336500464008        6.06247992584166
C            6.29688607758664        6.02330637516157        6.27953831779154
O            6.47304752346801        6.87149229163680        7.38242900506465
C            5.85406366872914        6.45270298447103        8.57347320291376
C            5.17461664018333        5.17141605236727        6.13980237406898
O            4.18125654712826        5.21137561677974        7.12781843211030
C            3.13634516769843        4.27676388920707        6.97933956166835
C            5.09394253217218        4.34369153503397        5.02843436788229
S            4.51926654568037        2.47262278836677        2.58675537652430
C            5.16949098704916        1.78013502172914        1.13721697385828
H            1.07262136921078       -1.60213541804820       -0.94001490253103
H            0.78881257116269       -0.07482402876905       -0.05351615280115
H            1.46839720162015       -1.48821219401556        0.80144283669600
H            4.85482171931920       -0.25646874852118       -1.51604266312440
H            8.91290258255337        1.85826097541185       -1.34336359478291
H            9.16324723343404        2.09083627496482        0.39338191678165
H            8.49791650022419        3.40860137990824       -0.59634937986594
H            7.83347675071280        3.67038632592485        1.89712636444599
H            7.93500034721882        5.19521280062842        3.44088100805688
H            9.13529797594652        8.69720264311911        5.80606883497774
H            8.37618213036550        7.75699956566453        7.11892226439931
H            7.36008223404620        8.50640384389470        5.85418959314641
H            6.27961820025935        7.01094129352966        9.40847592500118
H            6.02393259412252        5.38445818506010        8.71706348074503
H            4.78382952818071        6.65437058012566        8.50376353308340
H            2.46681642172496        4.37372432082116        7.83511253022205
H            3.54376781527917        3.26481286449874        6.96170511623765
H            2.57769588607436        4.48932510624003        6.06677178850067
H            4.24847252486632        3.69519206408361        4.90639924845482
