80
 energy: -17.206101882730 gnorm: 0.000200627687 xtb: 6.5.0 (97a52f5)
C            1.17755571918679       -1.90444486644178        1.12968036356192
N            2.38220683546502       -2.39908552334387        0.89599922947228
N            2.70782666592867       -3.66071656279852        0.57352637032924
C            3.88045774001609       -3.61570303279347       -0.02173473134219
C            4.54581139942457       -4.81878047056863       -0.51057415832819
C            5.79750724798884       -4.73019741206935       -1.11113121218177
C            6.44096787473962       -5.86251355710032       -1.55669468435846
C            5.84505117336457       -7.10006762901764       -1.40928940745413
C            4.60236028035471       -7.20231145277440       -0.81455692511055
C            3.95688354569073       -6.07179112214010       -0.36780106652246
O            4.47132526478198       -2.38287961055701       -0.16150472565712
B            3.61432709194085       -1.52412557879641        0.69378608140021
C            4.32778884360060       -1.29837583726533        2.11856492697984
C            5.16749199138534       -2.28342312189404        2.58016127672176
C            5.78762489344580       -2.14199577370455        3.80259428942232
C            5.56215473184357       -1.01805542347766        4.55979049554323
B            6.28905609350169       -0.89716977375289        5.98992428391916
O            7.11359831050464       -2.10688049798911        6.23709473671210
C            6.29681355418094       -2.85227225721324        7.05264077574941
C            6.61823441375120       -4.24409024761352        7.35175719650195
C            7.75453413202843       -4.83167418568450        6.80477307336980
C            8.05717784366880       -6.14830465527895        7.06848248447814
C            7.23053995140972       -6.89842973917204        7.88228697563169
C            6.09930010003729       -6.32741536980668        8.43245234208119
C            5.79393250625484       -5.01128528410158        8.16983429065206
N            5.22968624474673       -2.25969215773296        7.54481343544302
N            5.23690426950453       -0.99715278055092        7.08843153864798
C            4.63026196994182        0.05933145972753        7.60393231745527
C            5.06957784822162        1.36523268110630        7.26851096683916
C            6.27255697488738        1.49980649023093        6.54179886879180
C            6.77817947779736        2.78575037012041        6.27097053410912
C            6.13013459759656        3.90560141367999        6.68737280439586
C            4.91905949992510        3.81758760742672        7.41066267713021
C            4.24250372532511        4.97459374331396        7.84781366495095
C            3.07421633796168        4.87791533324621        8.54443203101614
C            2.53006504828569        3.62537404660315        8.83088571866215
C            3.16139223076575        2.48587222695375        8.42238168570060
C            4.37507339183100        2.54187327983991        7.70684762964634
O            6.98282998931385        0.41170827097325        6.09250919152859
C            4.71434855864017       -0.03626666142124        4.10421596913517
C            4.09519591184798       -0.17704159852974        2.87955106412408
O            3.19653138825877       -0.22023369738586        0.11701627712685
C            1.96947005705025        0.29289649986964        0.46591598455993
C            1.73377404285843        1.66469059503537        0.25279813836675
C            0.54225100955128        2.23775159606479        0.56815426476255
C           -0.50751152367650        1.47235387759193        1.12482215334387
C           -1.74789200012923        2.05857688086883        1.44956916660975
C           -2.75381340636519        1.31032245198129        1.98612123734421
C           -2.56446410083246       -0.05143641905019        2.22441609324159
C           -1.37547043503663       -0.64927116611509        1.91966896639018
C           -0.31280033262953        0.08687975213869        1.35647052918904
C            0.94684101093699       -0.51016932680396        1.01540460240813
H            0.37119266301462       -2.59263064900921        1.28254153207112
H            6.25352362107241       -3.76097809955609       -1.21808042145465
H            7.41110002458201       -5.78360642619320       -2.01924014977914
H            6.35024572906303       -7.98600438634591       -1.75732850299814
H            4.13875370351407       -8.16823141431807       -0.69860212315222
H            2.99083632655954       -6.14174239957357        0.10042357084768
H            5.33578036963040       -3.15775103474738        1.97680401307390
H            6.44804247248839       -2.90375432649016        4.17829212363499
H            8.39165349345772       -4.23813867254984        6.17195946260035
H            8.93914447730016       -6.59434677562035        6.63888025027845
H            7.46798290033199       -7.92930411188733        8.08765269303340
H            5.45451753703942       -6.91343272615759        9.06663753394428
H            4.91328168200254       -4.55916283535660        8.59096683012737
H            3.88642448085514       -0.10414278862842        8.35697506651932
H            7.69923033624037        2.85902817459770        5.72043454801406
H            6.53586327111092        4.87824343027015        6.46925751371223
H            4.66269312341828        5.94009488526567        7.62467645166687
H            2.56695338224556        5.76961850875147        8.87438572985069
H            1.60355139976104        3.56052975079030        9.37759866240946
H            2.71809281065462        1.53160386029819        8.64140382905828
H            4.54198791805796        0.83563228042786        4.70965992563327
H            3.43177793303699        0.58361830754340        2.50811267421985
H            2.52790668014396        2.25218206129804       -0.17264382006137
H            0.38389063589191        3.28786922047339        0.39379856324662
H           -1.89194628480001        3.10941166131258        1.26648281818682
H           -3.69783457548957        1.76965652306431        2.22938905704583
H           -3.36413934271626       -0.63248461299077        2.65389261587118
H           -1.24569675954490       -1.69638318849449        2.12423976001146
