50
 energy: -9.463369021279 gnorm: 0.000352958575 xtb: 6.5.0 (97a52f5)
C            1.68192328114455        1.60308657925398        0.08261753493789
O            2.95095142360638        1.30642853315063        0.58114849865934
C            3.26797915734000       -0.00531006200787        0.33504922664770
O            2.52960625542054       -0.77963128729311       -0.24656931501764
C            4.59964618129597       -0.43698848460556        0.83451518137419
C            5.43133101075477        0.45949167958780        1.43671255198806
C            6.72253381569975        0.08964560626712        1.93986033852373
O            7.45334992751603        0.92576742615766        2.47612706665352
N            7.12305411948874       -1.24341509598886        1.80347397655976
C            8.42599836124617       -1.63846286126861        2.30488172398542
C            6.27455720739623       -2.17835041852817        1.18760955002418
C            6.53397776591396       -3.56630313554147        0.98304932307181
C            5.52773201083167       -4.24127660796825        0.34798730073147
C            5.50302527566839       -5.65304686025552        0.00593737032563
C            6.45107503447457       -6.54830753484256        0.50293092519013
C            6.42064985336401       -7.88858432741159        0.18323149332274
C            5.41263993232147       -8.38004084671125       -0.67026701046537
C            4.45271388616128       -7.48566508414231       -1.18392929043657
C            4.51053998260397       -6.15438109192884       -0.83530194199965
C            3.36743412760210       -7.96731130722264       -2.10379098065045
C            3.74669349955740       -9.26088526938209       -2.83839482657466
C            4.29861851837460      -10.29812246129818       -1.86237914545398
N            5.36562854500195       -9.74071748795192       -1.00511049828462
C            6.30425028168451      -10.71972548873107       -0.41893959315565
C            7.65007542490421      -10.08591008118903       -0.07306811485603
C            7.45766651398539       -8.81043196353446        0.75950800965601
S            4.22970588795740       -3.12882537467997       -0.00653918853543
C            5.04146607727620       -1.77290864097847        0.71006367807085
H            1.44929049600794        2.64937757463938        0.29185413865460
H            0.94511108577895        0.95791874653533        0.56615754994845
H            1.66824705425538        1.43029507630721       -0.99569955973972
H            5.11716874864305        1.48056568248080        1.54334170849772
H            8.92858630681816       -0.77662618470042        2.74005860846742
H            9.03720945723766       -2.02694583076487        1.49262899153076
H            8.31627923113778       -2.40358218777067        3.07085379249247
H            7.45271065655348       -4.03151186665269        1.29666610870622
H            7.21736786491323       -6.19046794770123        1.16563538030603
H            3.77143609176812       -5.47685838871286       -1.22249594465687
H            2.45513050866054       -8.12661515559320       -1.51745545869527
H            3.12506898422176       -7.17535206621815       -2.82346389557947
H            4.50536377304270       -9.03933073548603       -3.59864838958695
H            2.88414269216851       -9.66477690301579       -3.38613715120670
H            4.69200755790953      -11.16907786585939       -2.39703178237847
H            3.50402592613696      -10.66703028766629       -1.20665907928323
H            6.43107784677548      -11.55281757584454       -1.11823275571753
H            5.83455911513515      -11.13428942876208        0.47832170843627
H            8.18337136586652       -9.84004704349264       -0.99916632350845
H            8.28992526881779      -10.80373725097505        0.45848861119023
H            8.40760987928394       -8.26992041684157        0.85585197118252
H            7.16152673026251       -9.07551799484077        1.78111792665891
