38
 energy: -7.411471696025 gnorm: 0.000308454989 xtb: 6.5.0 (97a52f5)
C            1.11840425255447       -0.12852397295094       -0.72014631601395
O            2.48126222650488        0.16461234663435       -0.75482041260956
C            2.96930297979212        0.31684859262711        0.51585681005725
O            2.28707084847617        0.20084511016322        1.51683520150708
C            4.41592153375489        0.64261678089495        0.60392578623844
C            5.16507495105107        0.76315632006701       -0.52728990368011
C            6.56322374168660        1.08188134403522       -0.48688730934754
O            7.21748463876086        1.18198702493422       -1.52592536945042
N            7.15876696371085        1.27520745033807        0.76268014491871
C            8.57171143025625        1.59963762023113        0.81814547766660
C            6.39793021861854        1.15280442112748        1.93617766893143
C            6.85479462553419        1.31815043403714        3.27844548661860
C            5.89077527830897        1.13478788503662        4.23037247227412
C            6.05169677593173        1.23228423045762        5.67183797369363
C            7.25257698969744        1.64304248176296        6.25465999225135
C            7.37978621849446        1.72868978921949        7.61716608335577
C            6.31769114707399        1.40805755878234        8.46879708713511
O            6.53928651676350        1.52345745751853        9.84188681345640
C            5.44248519491482        1.17757334733513       10.65439952143631
C            5.11511334676028        0.99731613079553        7.88461429393967
C            4.99034886617522        0.91441035401958        6.52120564660812
S            4.38100982575112        0.75229476934349        3.44291868306313
C            5.05430588018765        0.84093409441341        1.84791775594993
H            0.75383960948395       -0.24611108755041       -1.74310523762456
H            0.58917645720125        0.69093933416501       -0.22811774025583
H            0.96510567153523       -1.05430249413698       -0.16064914677056
H            4.70232723132965        0.61699453051181       -1.48543284229797
H            8.97302807786119        1.65103226607773       -0.19246081986564
H            9.10948308496510        0.83225794458484        1.37109025390214
H            8.71482194181073        2.56340329561736        1.30241380069256
H            7.87724951048812        1.56337699867011        3.50910361172659
H            8.08623747130726        1.90095457010634        5.62603125081106
H            8.30586553391216        2.04743452596621        8.06186405808068
H            5.73684405361989        1.30491676024007       11.69726194924502
H            5.17201549959444        0.13396253921538       10.48621253226779
H            4.60008994322411        1.83687189085147       10.43936998208343
H            4.27751930013668        0.74331095619860        8.50779523219608
H            4.05915216276812        0.59618639866262        6.08552952780663
