40
 energy: -7.802679856640 gnorm: 0.000453775886 xtb: 6.5.0 (97a52f5)
C            1.30671360411010        1.24913315836218       -0.05443212002663
O            2.65271614765215        1.27511511632602        0.30804579456737
C            3.12432848948383        0.00153410493064        0.48192522338533
O            2.44175924401762       -0.99477127489710        0.33239760966556
C            4.55248593660255       -0.09709525020599        0.87523927885339
C            5.30290396856228        1.02891633021664        1.03662849798965
C            6.68385602785635        0.97617118994203        1.41773039620977
O            7.34018653310207        2.00918941342035        1.55778891826842
N            7.26319318838962       -0.27844259552191        1.62636545131028
C            8.65945366074817       -0.34379253270569        2.01437086378738
C            6.50098207528892       -1.44663895231622        1.46231479956978
C            6.94026539091879       -2.79316369012344        1.63619467498224
C            5.97805722113220       -3.73605575138450        1.40375686791191
C            6.12189584901133       -5.17909560535287        1.49718728532316
C            7.30378562946578       -5.77516692741066        1.93342966290316
C            7.41314674463478       -7.14423170215857        2.02369194136801
C            6.35371803404203       -7.97580916689275        1.68466640652152
C            5.15232752989454       -7.38958423667085        1.20932066820536
C            5.05981915751990       -6.01189632782743        1.14089257652908
O            4.06815415661320       -8.16527772257131        0.79957091099234
C            4.41159709121259       -9.52347501537012        0.59294733615734
C            5.26351768773555      -10.05039184820904        1.74293941591354
O            6.49356160730384       -9.35220352736276        1.82850896593431
S            4.49247885228770       -2.93497177472114        0.96140628938079
C            5.17353995720926       -1.34635275445743        1.09231760577437
H            0.95137382177604        2.27494610666098       -0.17437990413177
H            0.73552378593211        0.74538811100037        0.72898335170378
H            1.20185645482577        0.70424459662490       -0.99554689644892
H            4.85319137408148        1.99113829687992        0.87702878327216
H            9.06690458067977        0.66394697291689        2.07514075876933
H            9.22596709577509       -0.90781754451688        1.27628070282091
H            8.75388280523247       -0.82054453139539        2.98783936213957
H            7.94989916357205       -3.03341249601417        1.92219579460615
H            8.13842343593913       -5.15716858375776        2.21259441305188
H            8.32274567563820       -7.59842634600249        2.37483896316837
H            4.14155080141887       -5.58109724933041        0.78684000518350
H            4.96913093443782       -9.57188854953072       -0.35024576371430
H            3.48122155417617      -10.09291295141233        0.46506210475065
H            5.48890342445207      -11.12030779590373        1.64041689906210
H            4.74753130726991       -9.90452069325559        2.69971610429361
