37
 energy: -7.375975081816 gnorm: 0.000443717721 xtb: 6.5.0 (97a52f5)
C            1.27574427289296        0.10994089512789       -1.06762998525183
O            2.62964384006109        0.44080104731606       -1.05272816268490
C            3.10359579536898        0.45091674136022        0.23110036344947
O            2.41750373520392        0.19620506764327        1.20285229124715
C            4.53868193619919        0.80051882869996        0.37456691279582
C            5.29806870130953        1.06364033966681       -0.72578663706142
C            6.68616316845560        1.40728850262443       -0.62786915375680
O            7.35261912654140        1.63621357928933       -1.63779293642300
N            7.26187818785061        1.47530420906803        0.64345513147750
C            8.66752131282079        1.81728424381101        0.75123653549840
C            6.48965144581972        1.20731114889778        1.78558409403016
C            6.92399186942984        1.23128412453278        3.14463109538698
C            5.95388270461641        0.91392558817213        4.05401468212190
C            6.09523274018499        0.84644187086465        5.49947969520838
C            7.25090500202996        1.30427123476674        6.14407231346949
C            7.38989359257333        1.24119878070435        7.51493990243228
C            6.36590036816174        0.70861990142502        8.27716070225577
C            5.18361561226492        0.23963660581962        7.64324594750438
C            5.05834285483592        0.31459507032027        6.27366076357429
O            4.30646787764723       -0.24728335426330        8.60385955636339
C            4.98328299244882       -0.06667188212724        9.84123887154150
O            6.25997965118944        0.52796118394242        9.64622300808530
S            4.46550170996325        0.58409236751804        3.20428389400483
C            5.15706689769132        0.87286102123149        1.64166102634307
H            0.92793268558052        0.09424701866775       -2.10321093757926
H            0.72062355732592        0.85781708464368       -0.49623261892562
H            1.14490811113022       -0.87500814149184       -0.61276464089977
H            4.85082396633579        1.01369530284076       -1.70125013534944
H            9.07641244387007        1.98349846595550       -0.24411072646215
H            9.21358070125634        1.00388046462943        1.22463643187600
H            8.78629893189738        2.72641487939827        1.33713574203294
H            7.93896403383940        1.46464624119677        3.41747495057153
H            8.04698607532815        1.72500557678436        5.55606698079237
H            8.27813512086832        1.59773756080059        8.00515267076949
H            4.16028539079977       -0.04340160893763        5.80667447575704
H            5.11580859282329       -1.04606703106069       10.32235609343788
H            4.37965499338101        0.58612707017436       10.48754180236182
