42
 energy: -8.053733315737 gnorm: 0.000349682373 xtb: 6.5.0 (97a52f5)
C            1.20027842656098        0.50011376499244       -0.14993094953175
O            2.53222242382549        0.49943857111851        0.26478721106723
C            3.09193147106650       -0.73768943218509        0.07569557898792
O            2.49228451448044       -1.68325415799703       -0.40235194408907
C            4.51011995267981       -0.86037403028397        0.50270582101919
C            5.18021657311662        0.22506176624380        0.98011036207759
C            6.54624075097524        0.15271027835939        1.41347164788200
O            7.12782652215638        1.15381488335354        1.83610699731845
N            7.19352788531583       -1.08437847892928        1.34236316661694
C            8.57570185744116       -1.17652693011212        1.77349826335567
C            6.51345282393846       -2.21233831861744        0.85409068293466
C            7.03120761489867       -3.53637211114840        0.72331333077124
C            6.14421332611790       -4.43786663692534        0.20812258003771
C            6.37816389148500       -5.85507359873561       -0.04062275826298
C            7.45717257550447       -6.53381830833225        0.52741945874120
C            7.64713673675113       -7.87641793210693        0.28135177559775
C            6.77675201518185       -8.56617994722545       -0.53235702815697
C            5.68601492494443       -7.92246133795880       -1.12150229721174
N            4.79307311596993       -8.61669719813793       -1.96691106912761
C            4.83320727605196      -10.07254134376499       -2.09461303939840
C            3.81822901482196       -7.90995904471159       -2.79678345791128
C            5.50670554537926       -6.56733343767597       -0.85526113501767
S            4.63437674639739       -3.63071576321871       -0.12692298260967
C            5.20039484230904       -2.09230530203083        0.43879234261116
H            0.78132390250850        1.49847784661139       -0.00671899258401
H            0.63926728943293       -0.22558541834420        0.44313249723194
H            1.15212962973898        0.22612697689449       -1.20618305572014
H            4.67623223457570        1.17124747973473        1.04045168613552
H            8.91771880609884       -0.20189154848386        2.11693884975930
H            9.20488816587786       -1.49706289815778        0.94557137633576
H            8.66572327970591       -1.88832166179104        2.59154370780958
H            8.04105854553294       -3.79051023420539        0.99685390316891
H            8.13508763362487       -6.00522662756877        1.17400563616647
H            8.48229233041219       -8.38937170840028        0.72917272811503
H            6.94478445335488       -9.60998304743320       -0.72814310935940
H            4.90584957966318      -10.53221293076603       -1.11127457913952
H            5.69053479878487      -10.36982736474640       -2.69486986214321
H            3.92858657837376      -10.44343102859026       -2.57153669471997
H            2.99357478182111       -7.55579295888529       -2.18189939941967
H            3.42070695040941       -8.56494303789795       -3.56902501403750
H            4.29072847308209       -7.06168126296158       -3.28762459516122
H            4.66646173963346       -6.05104652897930       -1.27887764014884
