34
 energy: -6.818011789381 gnorm: 0.000583397940 xtb: 6.5.0 (97a52f5)
C            1.10851819505217        0.40149894886622       -0.55026493504450
O            2.48067136791758        0.61574915586973       -0.42323748224628
C            2.97882254570375       -0.09999833738524        0.63308065201984
O            2.29560543894486       -0.81377593085704        1.34372328110223
C            4.43859424246935        0.04926639098850        0.86842620086601
C            5.19913900066173        0.80342794848026        0.02870625746110
C            6.61007631762057        0.98048098802200        0.22693607019847
O            7.27388935595444        1.67027384324195       -0.54797768337293
N            7.20489774483775        0.35163776454425        1.32436267110987
C            8.62854260299488        0.52710502956053        1.54119186071035
C            6.43067955121052       -0.42492696526943        2.20075354085777
C            6.88268389783673       -1.12025089532227        3.36374125383070
C            5.90417436464656       -1.80478049906804        4.02686151937929
C            6.05441226584621       -2.60217633807354        5.23788262777473
C            7.22470433937928       -2.57335272360774        5.99681871180150
C            7.34173020579002       -3.33198480646199        7.14013215182089
C            6.29738414272047       -4.13546050399059        7.55022297158014
C            5.13115743025497       -4.17698789734464        6.81420488082929
C            5.01056662252169       -3.41782887873741        5.67246479315183
S            4.38858523583465       -1.58523358984131        3.19068072149607
C            5.07666097987529       -0.57115077367566        1.96616167604780
H            0.73326276570243        0.98406905547689       -1.39440271693641
H            0.61017318067214        0.71619057255281        0.36943104589769
H            0.92653608108214       -0.66183236541686       -0.72120406763934
H            4.73685096652835        1.28908436754817       -0.81022490442716
H            9.04349735895653        1.14808932968926        0.74923008582762
H            9.13014692968645       -0.43836406289041        1.52970376828490
H            8.80331972409183        1.01482675729058        2.49795114324800
H            7.91272426831767       -1.10700164801580        3.67684374886287
H            8.03982673918649       -1.94211237674788        5.69004896150612
H            8.25065774430785       -3.29657170204801        7.71804390928158
H            6.39197068286619       -4.72872731915460        8.44496870628114
H            4.31484360377803       -4.80395170506183        7.13312493150321
H            4.10185410675624       -3.44869083316718        5.09689364694058
