35
 energy: -6.265530690987 gnorm: 0.000999852156 xtb: 6.5.0 (97a52f5)
C            1.46893025501717       -1.44995061319966       -0.55159526605190
C            2.43736742596974       -0.33175708729562       -0.13411498863887
C            1.75818955656512        0.90178156684177        0.45214014941181
N            0.60802450386037        1.36932034796845       -0.33362450014741
C            0.57567362871985        2.79813128532615       -0.70983880978089
C           -0.64320424440521        3.17178783220767       -1.56814879845375
C           -1.95935433095651        2.65760443541248       -0.97054705743314
N           -1.82661519068382        1.26774115792375       -0.52432333354456
C           -0.59941504261059        0.68060587626618       -0.24078429678076
C           -0.79679310880826       -0.63203421170141        0.14398776200469
C           -2.20799668710774       -0.88917594043935        0.10319044170360
C           -2.86497864596579        0.34552352381555       -0.28313618372143
N           -4.14569708654118        0.52768372343022       -0.30289987474409
C           -4.84272899546356       -0.56954829604135        0.21873114598110
C           -4.18732576330449       -1.94094472580479       -0.06700932773971
N           -2.83286846858473       -2.02054824654739        0.27935861789790
C            0.27526103890989       -1.63535757521419        0.39714409411922
H            2.02134822319046       -2.39315396778638       -0.66192796795609
H            1.07114692458631       -1.23482941295689       -1.55162266876071
H            3.04514412081573       -0.03559363430839       -0.99909335640004
H            3.15566233342808       -0.72411934230622        0.59829250098303
H            2.47101515152836        1.72528347337481        0.56394369008575
H            1.39021010487116        0.69001754273701        1.46095986263332
H            1.50989644173266        3.03401115100258       -1.23133041044491
H            0.57839617271084        3.38564118708895        0.21341953286080
H           -0.51550180909487        2.74983634135285       -2.57213012764976
H           -0.68971128627191        4.26014545052462       -1.71020233049716
H           -2.77882811434628        2.70842531811255       -1.69504655349369
H           -2.25926999704483        3.26382227734641       -0.11051388398026
H           -4.92668909650418       -0.42748522569800        1.30473034557993
H           -5.87124145225924       -0.54339617119059       -0.17027886316404
H           -4.27302988998002       -2.16774190151972       -1.13771633216016
H           -4.72629288880252       -2.74330447939494        0.45646433860861
H           -0.15675911871658       -2.63665990715387        0.27984773882262
H            0.60547533554638       -1.57454175217319        1.43959471085096
