52
 energy: -10.256261910754 gnorm: 0.000755636800 xtb: 6.5.0 (97a52f5)
C            0.40024457727243       -0.45167821328727        0.72668095361337
O            1.78007475468718       -0.36033696400268        0.91434027204903
C            2.38204429340625        0.17040957758524       -0.19775240604791
O            1.77404488436198        0.50945688351488       -1.19694876164478
C            3.85944144139656        0.30946942876403       -0.10945836156870
C            4.52297279176542       -0.09972739631782        1.00882777096126
C            5.94661381545412        0.01436492733911        1.14074902798785
O            6.51931847291112       -0.37999232990492        2.15922995743043
N            6.65946619027027        0.58200780276049        0.08060732340660
C            8.11485765878496        0.69483770824662        0.18855747134336
C            8.83525613518815       -0.13930760250270       -0.82067905855326
C            8.35902760461950       -1.39658861479840       -1.15016566221408
C            9.00617364439411       -2.17244114726013       -2.08868343880190
C           10.14491226148766       -1.69858233327441       -2.70532119680617
C           10.63567057299731       -0.45204050473705       -2.37848827434368
C            9.98561485268255        0.32277580751910       -1.44052165040834
C            5.98946490901017        0.99961789398697       -1.08042424891155
C            6.57693862988620        1.56544090648099       -2.25053358310656
C            5.68548482440044        1.87075227404021       -3.24140835747754
C            5.98862668224654        2.44925409288933       -4.53828642218233
C            4.96364082663452        2.70974748577761       -5.45029922620902
C            5.22643320984134        3.25927511314221       -6.67911405068682
C            6.53405698242364        3.57804819663978       -7.06053783813051
N            6.80684969147423        4.14777887088333       -8.31653910737557
C            5.73504175765270        4.48358285755943       -9.25403845173382
C            8.17303625641209        4.46626183570147       -8.73248701647517
C            7.56130928078002        3.31312013204055       -6.14823170199737
C            7.29616432105638        2.76289946535755       -4.91965417774812
S            4.07725568818920        1.44871330352388       -2.70785822756528
C            4.61649053293260        0.86048502870034       -1.16677565461985
H           -0.05801743400477       -0.86054802943387        1.62953362823971
H            0.19447892701830       -1.10788154014660       -0.12170993515955
H           -0.00298779656523        0.54328613152210        0.52583320667110
H            3.96880412462832       -0.52488583007912        1.82418127814284
H            8.40804093325664        0.38931010725196        1.19683361603330
H            8.38654353502232        1.74851974823187        0.08445412311556
H            7.46815301111066       -1.75684548638844       -0.66543978513880
H            8.62173025104194       -3.14705232506602       -2.34033719161406
H           10.65164367773726       -2.30273930311775       -3.43983913019935
H           11.52713620691235       -0.08151723267514       -2.85745220170533
H           10.36767624822689        1.29604979290495       -1.18505612868218
H            7.63849981102415        1.71613127792483       -2.34020938067691
H            3.95222437111563        2.47026866897175       -5.17188636743848
H            4.41672059027020        3.44541529442340       -7.36126142300737
H            5.02428712163423        5.15769388288004       -8.78052662816544
H            5.21789272718488        3.57888442185549       -9.56703493275176
H            6.12834862233324        4.97614723003490      -10.14047648674210
H            8.59396659793135        5.22474562861125       -8.07575554026724
H            8.19494107750260        4.84609322992795       -9.75138073316039
H            8.79270098498442        3.57299780984634       -8.69230934421936
H            8.57599532705853        3.54839752306264       -6.41419357270789
H            8.10549353991204        2.56936451302941       -4.23845297275673
