48
 energy: -9.613734723637 gnorm: 0.000640301373 xtb: 6.5.0 (97a52f5)
C            0.49715558341888       -0.63257488505505        0.51339430015914
O            1.86748810031598       -0.59375690706177        0.77107181642752
C            2.51049985585403        0.16474209104187       -0.17207277835868
O            1.94143692564105        0.71892351889851       -1.09438281743304
C            3.98209397975592        0.27497634665580        0.00345826145384
C            4.60490437627907       -0.38623076285089        1.01881743762449
C            6.02159001922299       -0.30533854153244        1.22997729569885
O            6.56069750742389       -0.93112909332375        2.14469923942841
N            6.76843456842505        0.50043937147153        0.36647101578729
C            8.21501817594207        0.59531036498906        0.56655753656344
C            8.99243854984594        0.00789292665703       -0.56634394461126
C            8.57832108555541       -1.17749222699570       -1.14879190225150
C            9.27747179851359       -1.72693903006649       -2.20258846803807
C           10.40648691967577       -1.09722363420970       -2.68240678800281
C           10.83423001267654        0.08012755518622       -2.10573020481376
C           10.13243493039760        0.62894154283117       -1.05278354019799
C            6.14173448344526        1.17367436626716       -0.69292701304869
C            6.77018346895036        1.99066509249587       -1.67945945349216
C            5.91642171405328        2.51403957803106       -2.60908938872112
C            6.26752246995574        3.37115276819028       -3.72884633078128
C            5.27692313075389        3.85060151877581       -4.58679276790222
C            5.58964101131411        4.66042042014117       -5.64754386530217
C            6.91232592054477        5.03368145996961       -5.90721858933211
O            7.14394374212420        5.86162518947874       -7.00723718520027
C            8.49277790516201        6.21123962349874       -7.21395729108715
C            7.90597108442274        4.55134194824873       -5.04861500891453
C            7.58966422056742        3.74073430166429       -3.98773413369601
S            4.29215909953492        1.98470923481073       -2.24922300659780
C            4.77515385011392        1.05756407715762       -0.86477666341975
H            0.00410027202730       -1.22016893974783        1.29075151575785
H            0.32818619743166       -1.09256426644438       -0.46266600324772
H            0.10217244540793        0.38578657765701        0.51239103198096
H            4.02395507962476       -0.99264753040767        1.68800135392337
H            8.46602588271065        0.07643156250209        1.49616059472699
H            8.47343264316597        1.64761633998019        0.71061287019825
H            7.69340765812593       -1.65961564443663       -0.76997068254191
H            8.94100488366101       -2.64722545546986       -2.65126668767119
H           10.95576247930326       -1.52538291140095       -3.50489035712201
H           11.71841520149475        0.57146439742871       -2.47746655891111
H           10.46701002240203        1.54714999375533       -0.60120199682169
H            7.83301489193121        2.15803287459316       -1.68801457192120
H            4.25363254076160        3.57336883027390       -4.40286124854432
H            4.82028915198437        5.02624279007745       -6.30394712047368
H            8.55005700961456        6.85858173017048       -8.09016038663884
H            9.08488189524199        5.31345296230269       -7.39721718753327
H            8.87210930517082        6.75391442624098       -6.34682722484257
H            8.93299956002019        4.81643726987922       -5.22006938999915
H            8.37289839006583        3.38066677768299       -3.34470371224990
