42
 energy: -9.014825120198 gnorm: 0.000662136203 xtb: 6.5.0 (97a52f5)
C            1.65359494362916        1.09877196506027       -0.05248413959278
O            2.98042783283122        0.67383067522099       -0.13933421351251
C            3.48093676380321        0.40621772786937        1.10876418932405
O            2.84634756478725        0.53267427783952        2.14010052582780
C            4.88899950643161       -0.06727604625492        1.15453917920711
C            5.50299989432085       -0.34173523761337        2.36721081494020
C            6.80614626296344       -0.78021125351667        2.40954492005245
C            7.53748811802472       -0.95933644084914        1.23657815082563
C            8.94040726301387       -1.42988790076501        1.27532222671152
C            9.32954688644849       -2.43236908684342        2.16081950024083
C           10.64129340958481       -2.89726364119732        2.20569949422912
C           11.05759058204826       -3.92893358524599        3.10741961515846
C           12.33553764694150       -4.36551281981866        3.12988938587423
C           13.32453491867675       -3.81461224261941        2.25355550160077
C           14.65082674285685       -4.24618708490891        2.25702943955580
C           15.57553813581204       -3.69132620939432        1.39681368400527
C           15.21049150081772       -2.69693586369606        0.51307512209332
C           13.89749733183922       -2.22875176029998        0.46930154916554
C           13.48025316713610       -1.19812772148023       -0.43256728845798
C           12.20250044017260       -0.76152350095373       -0.45448326162758
C           11.21461066727147       -1.31351644783416        0.42294380592831
C            9.89141583905299       -0.88162805595334        0.41781209511939
C           11.59636118350348       -2.33345181323623        1.32651063561662
C           12.94370587878613       -2.79367315533966        1.34981107069949
C            6.91244126450714       -0.68255782877952        0.02175578469363
C            5.60987159366713       -0.24403435068461       -0.01658030069326
H            1.27982226007827        1.31912411403448       -1.05456392514363
H            1.60176087240762        1.99846475916651        0.56459041718194
H            1.04960976073524        0.30915487833422        0.39979140697183
H            4.94123137572613       -0.20311854392241        3.27497766229423
H            7.27724784619139       -0.97705087662798        3.35698900390400
H            8.59788964662536       -2.86946253070259        2.81534182011073
H           10.32752710537104       -4.35434350832377        3.77359469260712
H           12.63060889061954       -5.14186386643739        3.81405316383473
H           14.94663392017821       -5.02157679164836        2.94220377691775
H           16.59542407737231       -4.03857061227865        1.41536238982676
H           15.93995472665219       -2.27137164930277       -0.15387846403218
H           14.20948622291512       -0.77298898553556       -1.09988186896885
H           11.90611642047809        0.01406108816887       -1.13893536635561
H            9.60119283579173       -0.09819146730204       -0.25797065338718
H            7.45729542020338       -0.82904824604687       -0.89470864931266
H            5.13109327972344       -0.03282036028823       -0.95728289343512
