68
 energy: -14.330429234617 gnorm: 0.000518958427 xtb: 6.5.0 (97a52f5)
C            1.09651209823691        1.08586130451684       -0.86932527215706
O            2.41769176263105        1.31666931317927       -0.48731607037576
C            3.15415197425671        0.16847532056825       -0.60365133289524
O            2.70177040034406       -0.88925925882381       -0.99910720732393
C            4.57976025734186        0.26509506585327       -0.20800459356705
C            5.39978754109664       -0.85227293865472       -0.25620048658917
C            6.71540127459172       -0.76830173162873        0.12930531003267
C            7.26005907135530        0.43626698594484        0.57756120182162
C            8.64578125238730        0.49346291236685        1.01443804238188
C            9.31715736283403        1.58345334918022        1.49854715820338
C           10.64984181573820        1.31745374268513        1.88375714030434
C           11.02981246523591        0.01929558166057        1.70187180359588
C           12.32137038422866       -0.51758865456605        2.05575469582506
N           12.71444432599805       -1.77994763111566        1.85196315867414
N           13.91097904227992       -1.91712980420755        2.32857100412768
C           14.29466292917993       -0.74495077753071        2.84220541210021
C           15.56302501740839       -0.50229693961032        3.51165515219617
C           16.46740356416841       -1.53741778066752        3.73807734642146
C           17.63117947624469       -1.30652772269253        4.42801401423722
C           17.92917404551063       -0.03378398686889        4.90699900323504
C           19.13431749571160        0.18789676169315        5.69077009785865
N           19.53513053652455        1.37611022809385        6.15179787754301
N           20.61833249248832        1.20148448277388        6.83938061752677
C           20.92119989039042       -0.10135437172361        6.82609339874011
C           22.03917916415296       -0.69709874153362        7.51632347564978
C           22.36241252861046       -2.02252406449591        7.48624379004812
C           23.47914798167877       -2.35657493975363        8.28398502047468
C           24.03439415296576       -1.29423867986952        8.94472845177178
C           25.16060015969346       -1.32301574269658        9.86448983819494
C           25.64556447567430       -0.13648514119075       10.41719128486087
C           26.68725286074834       -0.14479889648315       11.31249379260720
C           27.28153480889875       -1.33947605640906       11.69002362409273
C           28.39210328270428       -1.34818799693153       12.67225531147735
O           28.80297572208872       -0.30139922826680       13.13626107086323
O           28.89353862549742       -2.57795932418446       13.00461458872578
C           29.91416114895571       -2.44672002682067       13.94583543022342
C           26.81209222584098       -2.52486310882606       11.14330243886803
C           25.77151025715682       -2.51998901965854       10.24587228166650
S           23.16084242461260        0.15857303011306        8.52838276251767
O           20.00287113502503       -0.78021294910687        6.08714725696143
C           17.03415701504413        1.00523114101799        4.66283669174800
C           15.86769478447767        0.77317956657131        3.97855668492351
O           13.31272816487353        0.17971628061241        2.67248629175697
S            9.71857338368688       -0.88306160234190        1.00838089067179
C            6.42734045950528        1.55713423388279        0.61476626070983
C            5.11141816070224        1.46958928534909        0.22909043652024
H            0.53222743610400        2.01671500625368       -0.77887173217071
H            0.66495611149363        0.32334025948379       -0.21663656621428
H            1.07834049542310        0.73751829936332       -1.90467809493512
H            4.98306394432826       -1.78567620480735       -0.59498235517037
H            7.34309605884163       -1.64149973832466        0.09595314700543
H            8.86848641272794        2.55880968016414        1.60133326192949
H           11.31164427176009        2.05969846027065        2.30429414522742
H           16.23120237337519       -2.52349475885329        3.37764272060438
H           18.32448365250842       -2.10756857606335        4.62050862646416
H           21.79564435865937       -2.74348699645535        6.91647400243444
H           23.84767526090227       -3.36649661503772        8.37011906675388
H           25.18522510129846        0.79399133391168       10.13460122543287
H           27.05466629446133        0.77306131414594       11.73941453124928
H           30.30067874557485       -3.43849195615339       14.19102041628579
H           29.51298777975068       -1.97034330032708       14.84353157347094
H           30.71113147752303       -1.82856990571560       13.52591986205380
H           27.27594833752846       -3.45002507619536       11.44094577548235
H           25.41632607905962       -3.45029031947732        9.84014770983929
H           17.26351935945248        1.98823891603273        5.03584167034673
H           15.16368337761799        1.56938867295761        3.80572014447290
H            6.81902952569622        2.49887415511331        0.95522054401887
H            4.46992414701336        2.33380587998027        0.26553517788105
