54
 energy: -11.346746045433 gnorm: 0.000201333150 xtb: 6.5.0 (97a52f5)
C            1.02010206876067       -1.07733561302227       -2.81932056160291
O            2.01193215535084       -0.74869652656748       -1.89557790360512
C            2.96410338825243       -1.73091622590117       -1.84724225111681
O            2.93666693910092       -2.73810672789269       -2.52880249432397
C            4.07492971812948       -1.51188447078318       -0.88670792672718
C            5.06986309522991       -2.46423360504588       -0.72849449219195
C            6.08803467308006       -2.26999135748551        0.17520558938528
C            6.14225923195280       -1.11274381855087        0.95039116518920
C            7.21074909450114       -0.90810472690827        1.95171992534155
C            7.62716633841024       -1.96093408038823        2.77828404656630
C            8.56909636436667       -1.77676252930375        3.76761830452269
C            9.11783394307603       -0.51497685453509        3.94341552521284
C            8.72455140385606        0.53980802133369        3.11292761342066
C            7.78255848570984        0.35281728887536        2.12448923544013
C            9.42846592786806        1.76681070971921        3.53217021944251
O            9.35192023072450        2.86544499050164        3.02943875595361
C           10.23774067633874        1.37206485157672        4.70092485090063
C           11.02738041379458        2.13830141150487        5.53086755521220
C           11.65408930046886        1.54167366248146        6.62558953403828
C           12.43935964652012        2.35889340453767        7.57479566261797
C           12.01576621913305        3.63999835210461        7.92582816653875
C           12.71885193508025        4.39068922187113        8.83731878544210
C           13.86570398883675        3.88755539285588        9.43020047265863
C           14.60462334536596        4.69403974626760       10.43435665654052
O           14.24577905858120        5.82915170187819       10.68522666900894
O           15.67090652969156        4.08075523852734       11.03396764768814
C           16.25892569950712        4.93570171513027       11.96593848093992
C           14.29958742275014        2.61771691682377        9.08169336191617
C           13.59999425658332        1.86463378783038        8.16821729387197
C           11.48014834291601        0.16698476217778        6.83893757953935
C           10.69373152449786       -0.60253892895654        6.00866040923755
C           10.05976186705815        0.00444566616094        4.93468916969111
C            5.14161264747861       -0.15743480603380        0.77905316747717
C            4.12535177564364       -0.35545565350950       -0.12451821193652
H            0.27668702525729       -0.27746819212072       -2.84303083681261
H            0.54742056495922       -2.01514088675801       -2.51858363369168
H            1.47349860800658       -1.19353666609066       -3.80631408779053
H            5.02693186525348       -3.36005259280408       -1.32429348356823
H            6.85952168388451       -3.01216454615588        0.28487641375728
H            7.17212640529502       -2.92788319627386        2.65288520511369
H            8.86682189352168       -2.58591506129798        4.41067214704970
H            7.49189651316938        1.17948775168253        1.50283301096099
H           11.14571743191793        3.18730031005242        5.33147281927616
H           11.11207640892619        4.03183370410785        7.49249776694408
H           12.38487874821170        5.37681951481060        9.11196215872457
H           17.10139781973740        4.42467651970534       12.43712547442297
H           15.51763491948485        5.20504789243058       12.72198115223983
H           16.60751989844432        5.83673300998730       11.45598436418771
H           15.19189063831471        2.23083983371207        9.54355514523152
H           13.95200733183767        0.88416694467937        7.89860162942469
H           11.94913749945227       -0.28769411802172        7.69388332805157
H           10.55071495937326       -1.65256869303760        6.19283547432797
H            5.15873813703156        0.73420918120349        1.38137245773685
H            3.34937393922027        0.38064837291093       -0.24801850787267
