51
 energy: -10.179366830874 gnorm: 0.000668953868 xtb: 6.5.0 (97a52f5)
C            0.67309373262488        0.60035500786689       -0.50816067595803
O            2.03338798875062        0.32337530902753       -0.36732383149952
C            2.77237563258466        1.13148702002126       -1.19109570811072
O            2.28918000746406        1.96489028483351       -1.93549039045809
C            4.24168219300201        0.94465516463549       -1.14029939244564
C            5.07651825039225        1.71684250860944       -1.93640903646386
C            6.43722390214593        1.54768031858052       -1.89388665345376
C            7.02010936133762        0.58420771035985       -1.05871170564879
C            8.45363296520607        0.44398704487471       -1.03251967336270
C            9.18323499885326       -0.63070735350425       -0.59716117326478
C            8.76573768792115       -1.93621989237822       -0.22143811127186
C            9.86363229119591       -2.68971561357398        0.11219031203862
C            9.83897748288942       -4.10427929642833        0.50905645074715
C            9.12076367892809       -5.03886417045764       -0.23593374077082
C            9.09310654633285       -6.36219550396580        0.13445986537314
C            9.77642208577949       -6.79759618343759        1.26444965405952
C            9.74623257853605       -8.14836058691144        1.64237786602532
N            9.72113586432670       -9.26619858478248        1.95551823918237
C           10.48608076730625       -5.86669073126502        2.01508691052448
C           10.51575423594307       -4.54311222681447        1.64560230498521
N           11.00772975586403       -1.90201494414793       -0.05092976361008
C           12.40159269032157       -2.34682581409408        0.00954006647358
C           13.27794964943477       -1.39900053380447        0.83413205438949
C           12.76131182987674       -1.28684910954467        2.26726723296084
C           14.74540809079767       -1.82886180717223        0.80127044998258
C           10.65029344881308       -0.63216086373075       -0.52098848915395
O           11.39475251529654        0.28414997251410       -0.81630747462764
C            6.16699944633868       -0.17191068208259       -0.24346644491747
C            4.80697573963908        0.00417620395414       -0.28938718299778
H            0.10385301946781       -0.06087012013235        0.14873029776870
H            0.37854134075181        0.43496173910184       -1.54690176578949
H            0.48899149926654        1.64214751058609       -0.23640217794179
H            4.63389240127587        2.45125427909156       -2.58753623621392
H            7.07325180810513        2.15206651071797       -2.51749066452140
H            9.02339159268848        1.27880347746686       -1.40317442981969
H            7.76237855845458       -2.31715076200129       -0.25911255163925
H            8.59360300382705       -4.71124407489685       -1.11522179494177
H            8.54037832591444       -7.07856721968350       -0.44909813096421
H           11.01001402514374       -6.19718820899532        2.89572916916102
H           11.04416698278123       -3.82558661400191        2.24809681045439
H           12.77372978184801       -2.42038992149300       -1.01592731801540
H           12.44034483640123       -3.35428790506559        0.42730792412640
H           13.19581011695910       -0.40161492181809        0.36592253169941
H           12.84452419429487       -2.24326665227787        2.78253095846280
H           11.71209615951147       -0.99026313734075        2.28556026609659
H           13.32904233928291       -0.55371264088889        2.84131214654355
H           14.86677821959237       -2.81380673313364        1.25175038863941
H           15.37756990606509       -1.13302565708426        1.35392729385424
H           15.12213001855904       -1.88526700943391       -0.22062811366333
H            6.58663010533990       -0.85723973555588        0.46950105721185
H            4.15687634656773       -0.57697485034793        0.34209238074134
