38
 energy: -8.146809470700 gnorm: 0.000977645388 xtb: 6.5.0 (97a52f5)
C            0.86037440323771        0.23496789857516        0.82071187352176
O            2.20323800690283        0.29879786267424        0.45317649208925
C            3.00197512377711        0.22867375851476        1.56121111034732
O            2.57572066141697        0.13024227178895        2.69584300408751
C            4.46240891061619        0.27564902611094        1.31959575293240
C            5.35207227899317        0.19963778043967        2.38183200666412
C            6.70594977683796        0.23045016002230        2.16332175827339
C            7.22516290321069        0.35482250729835        0.86761513699689
C            8.65355777252346        0.35961768911367        0.66990985785366
C            9.34372070146934        0.86752871489690       -0.39745305188685
C            8.91003124766494        1.64999417692829       -1.48913283729534
C           10.00786643135594        1.93533010741256       -2.26139170298302
C           10.02570613805815        2.73232812190714       -3.48747789355821
C            8.89570199528393        3.38418241328101       -3.97595744495218
C            8.96248860295754        4.12847558966021       -5.12974524152569
C           10.15642164632507        4.24516592662925       -5.83308004530539
C           10.22227284424454        5.00653069942233       -7.00918215367446
N           10.27806960463025        5.63819291634969       -7.98185439640978
C           11.28436107842567        3.59465471640841       -5.34654457468751
C           11.21840302821630        2.85194809429540       -4.19220872079098
O           11.15329847914794        1.37526722546471       -1.73161537745884
C           10.80177819525371        0.72242330461452       -0.57651124987911
O           11.52411273580116        0.11708595638004        0.18987485415151
C            6.31573366882387        0.41345225995597       -0.19645020847994
C            4.96277888197632        0.37713509104102        0.02886199371357
H            0.24503359518937        0.29341688374698       -0.08027593968049
H            0.63418014575490        1.07205063524812        1.48606005665551
H            0.67888333442337       -0.70976664667449        1.33936405659672
H            4.95634374556616        0.11222550520457        3.37994628695267
H            7.38599013828396        0.17037666662603        2.99588897441871
H            9.25058464767972       -0.08375800665410        1.44922930938144
H            7.91649564058520        2.02288692205837       -1.64909946932412
H            7.96433340636703        3.30843338643051       -3.44235771990833
H            8.08701662434106        4.63344610121654       -5.50255686711018
H           12.21240837866640        3.68100061522823       -5.88714454450781
H           12.09219700374367        2.34892342926960       -3.81242866026639
H            6.68398956463301        0.42595171626648       -1.20619676035697
H            4.26706865761124        0.41489852284522       -0.79273766460349
