45
 energy: -8.811789961410 gnorm: 0.000186645368 xtb: 6.5.0 (97a52f5)
C            0.69507183250626       -1.69853860135831        0.98975563700975
O            1.97190097741298       -1.16340893701877        0.82387180265022
C            2.92294294004163       -2.12443954886882        1.04083535697518
O            2.66668146211059       -3.27474614840250        1.34418639206283
C            4.33090755560570       -1.69490750418509        0.88085338882513
C            5.36759060775458       -2.60493670583821        1.03927481735959
C            6.67180499294814       -2.21536264149918        0.87208105213299
C            6.99440949547567       -0.88847866758978        0.55201940392768
C            8.37007498720688       -0.52240590734048        0.34416647665445
C            8.91406043529633        0.73672216633108        0.37088056364879
C            8.36631514777145        1.96938226562021        0.78200021432986
C            9.33140122701126        2.93227265649909        0.61753544419811
C            9.19479243880286        4.35358623961587        0.91415831783000
C            8.09604256784614        4.87678121841325        1.58704970251759
C            8.01985215097575        6.22252913341059        1.84663840389913
C            9.02037533722093        7.10620394272698        1.44584591329177
O            8.82268304727995        8.44777614474609        1.77075293782055
C            9.84431718929526        9.32880437149122        1.38505047630892
C           10.14899657930415        6.58471928256973        0.74523901011894
O           11.14670661363612        7.46772452966820        0.32397595883546
C           12.15231614552390        6.90612891930035       -0.48866148077086
C           10.20461864649803        5.22014866433637        0.50994270109463
O           10.50190024833076        2.38970842653921        0.12001716867507
C           10.30218115584215        1.03891984918321       -0.02649198928627
O           11.09525160830855        0.20389819809444       -0.41777190448051
C            5.93668584557506        0.01589762451467        0.38168125714542
C            4.63462174786630       -0.38174265144347        0.54669878166883
H           -0.04422368387574       -0.91318203088355        0.81706446049876
H            0.59884760986123       -2.08524199600445        2.00701749199688
H            0.55223042749090       -2.50973849698004        0.27196168452518
H            5.12527737643838       -3.62380697583444        1.29015562646307
H            7.46622759397613       -2.93152778346615        0.99349498579320
H            9.05370799997564       -1.32562727361155        0.12697922920087
H            7.39404845701865        2.12529138619329        1.20851126299732
H            7.30927586461667        4.22106474302461        1.91540001652101
H            7.17370985221805        6.62750134520325        2.37352755427250
H            9.58474006953496       10.33618604499386        1.71411152336405
H            9.94291355607493        9.30742756808152        0.29826299112572
H           10.78149906770239        9.01679836018713        1.84959343051831
H           12.81591020573152        7.70881514148440       -0.81347285904010
H           11.70159457478336        6.44106388230087       -1.36686748768983
H           12.72902526064759        6.17987586495518        0.08586550810364
H           11.04651530611227        4.79269766285563       -0.00115979703133
H            6.14500034051349        1.01800742996110        0.05523797338575
H            3.82558713776067        0.31482880800370        0.40552060055898
