39
 energy: -8.108084765249 gnorm: 0.000720551978 xtb: 6.5.0 (97a52f5)
C            0.73099602264488        0.76934617926917        0.73642754689489
O            2.06623325390104        0.54470439955601        0.40672430470367
C            2.88785893489115        1.17634346396856        1.29802117741175
O            2.48496821688608        1.83517234443013        2.23698891779919
C            4.34222607779295        1.02358300453067        1.06889763436610
C            5.25444068593894        1.65961469241366        1.89905133893533
C            6.60292081501288        1.52377983295370        1.68882534416139
C            7.09352951748589        0.75362000920347        0.62548560463011
C            8.51664381319555        0.62634277274013        0.43563604700814
C            9.17591920424098        0.29668917777436       -0.71838021450414
C            8.70567653079581        0.14614283848226       -2.04099581212741
C            9.78301658036864       -0.15017997740452       -2.83656480584579
C            9.76320919398815       -0.38303625827951       -4.27984439144625
C            8.60212584105516       -0.27577503176766       -5.04303622540838
C            8.63632251556014       -0.50466332174505       -6.39804435663621
C            9.82226592303730       -0.84533382093488       -7.02047192718834
N            9.85242851994035       -1.09181096543506       -8.46241256449744
O            8.80912869296269       -0.94298353556840       -9.11030689235289
O           10.91941000370900       -1.44000705533341       -8.98272861327269
C           10.97932420515654       -0.95387232153139       -6.27326440024364
C           10.95052058039851       -0.72457432238527       -4.91865102751959
O           10.95063853948005       -0.20049907638640       -2.10082212215159
C           10.63315568768555        0.08156612918507       -0.79651001588338
O           11.38272966794019        0.14917859375032        0.15702961652001
C            6.16141029451771        0.09660411224307       -0.18850366295587
C            4.81413933026436        0.23446344014836        0.02913419871645
H            0.09895988611018        0.26297777990825        0.00277713060193
H            0.53845432395004        1.84529586187719        0.72170047816765
H            0.54220875829977        0.37190694417415        1.73704713118474
H            4.87985263608551        2.26119763321208        2.71070939255067
H            7.30059877396259        2.02607059285286        2.33721459485583
H            9.13822273197412        0.81953359397680        1.29384312831952
H            7.70016799466414        0.30483240396888       -2.38098175225523
H            7.67321395628025       -0.00995331471553       -4.56978125993294
H            7.74264825303591       -0.42242686977989       -6.99449843917513
H           11.89733195327616       -1.22072804021954       -6.77029588938472
H           11.84842477533014       -0.80516501206732       -4.32856071099893
H            6.50719773989189       -0.57161279817913       -0.95618587219011
H            4.10071956828279       -0.27428407890425       -0.59778263085750
