37
 energy: -7.647495282374 gnorm: 0.000746348095 xtb: 6.5.0 (97a52f5)
C            0.72139712856268       -0.70882409088496        0.77025941034488
O            2.05874503049027       -0.35820626087934        0.59122851019269
C            2.87747711402351       -1.30796057073491        1.14118286448311
O            2.47303423742382       -2.30926041058354        1.70204587069095
C            4.33369477313540       -1.05906944710778        1.02415965176421
C            5.24711624031817       -1.95825941747633        1.55636376374660
C            6.59588946604794       -1.72975057925399        1.45168083739199
C            7.08594771036485       -0.57911688711166        0.81957849842924
C            8.50968341221656       -0.37215933133264        0.72047223571419
C            9.16557347569351        0.81462976231224        0.53609688781547
C            8.68684922645279        2.14309182411668        0.54180844516998
C            9.75917206052908        2.97660158180986        0.35131796130142
C            9.71924313902327        4.43928452180173        0.29684724679845
C            8.54440790937588        5.16289955345906        0.48401838795094
C            8.55412467437671        6.53865274539043        0.43056742056818
C            9.73228059277733        7.21521169704522        0.18913604408039
C           10.90395631159667        6.51154077981036        0.00134769481888
C           10.89704117204823        5.13614722696105        0.05528361254352
O           10.93436438618851        2.26167181203075        0.22127838344634
C           10.62493436741451        0.92774402511911        0.34189365066594
O           11.38301243037137       -0.02133553176389        0.30020826375013
C            6.15341199394361        0.30726272443174        0.26567713801847
C            4.80597970110978        0.07098907461734        0.37122018683457
H            0.08895780954409        0.07004808105965        0.33864605604381
H            0.51686938214828       -0.80506695873902        1.83910864854800
H            0.53183155583440       -1.66221488442730        0.27175581586022
H            4.87502671820561       -2.83838857175442        2.05285603850196
H            7.29444064312371       -2.43285211783067        1.87167934829941
H            9.13155891945546       -1.24628569412101        0.81198274965430
H            7.67805438577395        2.45518432464441        0.73182411546679
H            7.62308991383851        4.64204913023930        0.67555288111653
H            7.63967010107336        7.08925338548447        0.57909050132248
H            9.73683524174236        8.29208880944900        0.14786932762464
H           11.82500754301962        7.03862359013410       -0.18681224005406
H           11.80558013267704        4.57629065159344       -0.08729735400156
H            6.49943760757211        1.15292596280252       -0.29981530774225
H            4.09321349250711        0.75422948967922       -0.05855354714894
