45
 energy: -8.904308153294 gnorm: 0.000729846929 xtb: 6.5.0 (97a52f5)
C            0.94907737117404        0.20026736949113       -1.36615175771450
O            2.29840146598858       -0.13918549334908       -1.45979652185551
C            3.08263979728247        0.96009655392766       -1.23116116273391
O            2.64095615439756        2.06783598158493       -0.98721582814953
C            4.54515059285759        0.74160500983419       -1.29036608817741
C            5.42342573626001        1.79056237027651       -1.04648204003733
C            6.77989032871451        1.59506534303253       -1.09666978731834
C            7.31268729668895        0.33347400618394       -1.39640040132665
C            8.72948486967795        0.14180920220753       -1.44142803641173
C            9.36275907783122       -1.03662569279721       -1.72689285438764
N            8.78993413531282       -2.23827224894134       -2.03124259539593
C            9.76365520363607       -3.11008665723566       -2.21202529904642
C            9.53390489827657       -4.50503064292188       -2.54408690722367
C            8.24210339423787       -4.95696283261163       -2.78567807387705
C            8.00997187636372       -6.27265869322204       -3.09990809811738
C            9.04746382015418       -7.19818496925675       -3.18327363099284
O            8.68212148916315       -8.50520565407968       -3.51265708042637
C            9.73388518618420       -9.42723382468947       -3.62382670187361
C           10.37919656353750       -6.75366825591007       -2.92882490281196
O           11.42117587902763       -7.68424183703097       -2.99812606146827
C           12.70143641106514       -7.19523372448031       -2.66823175294644
C           10.58425764723889       -5.41870457169998       -2.62092932783872
N           11.01637468025723       -2.53042160318958       -2.04548950907453
C           10.82688389523750       -1.19921131359191       -1.74145859948109
O           11.65663909113623       -0.33424627520241       -1.52984505263127
C            6.41540173767072       -0.71309644392495       -1.64001864706430
C            5.06109220813753       -0.51368814999281       -1.58784992215713
H            0.34468355695629       -0.69043536853014       -1.55170993293980
H            0.72106838010367        0.96803686685045       -2.10927273332740
H            0.74723853832831        0.58627473318760       -0.36415437015839
H            5.01539925729141        2.76018066470394       -0.81613659532593
H            7.44983014460625        2.41520222804407       -0.90393981235103
H            9.35348147188482        0.99072527593658       -1.22714444474040
H            7.42730660874249       -4.25682906197953       -2.72568602484090
H            7.00938142525487       -6.61859975012051       -3.29127917478637
H            9.32481876217141      -10.39818059297541       -3.90720454966407
H           10.24322600722203       -9.50569578258823       -2.66169008236934
H           10.43345113389088       -9.08265296652613       -4.38755872166313
H           13.40851663674793       -8.02410575198128       -2.72409453004659
H           12.69615783930531       -6.80214960810511       -1.65047700138401
H           12.99875062864472       -6.42748554609702       -3.38398911749509
H           11.57781371199009       -5.06750980826685       -2.42649547199007
H           11.92983901149095       -2.95513588577171       -2.16124887441036
H            6.80656496227008       -1.68575320762232       -1.86996046463821
H            4.37717111558084       -1.32399339056729       -1.77529145733923
