44
 energy: -8.666860526157 gnorm: 0.000597456558 xtb: 6.5.0 (97a52f5)
C            0.98321313026616        0.57699841205760       -1.24177297175348
O            2.32220689943335        0.22367429858902       -1.40434915987024
C            3.13584555868585        1.17791368581771       -0.85562108311957
O            2.72534010350934        2.18623928835010       -0.31231591508646
C            4.59135508561201        0.92586165764237       -0.94880455478923
C            5.49746473570963        1.83129768856005       -0.41092823265928
C            6.84744224998521        1.60076774534259       -0.48684506381852
C            7.34370656243642        0.44727974326600       -1.10871564748952
C            8.75390635573544        0.21239126938321       -1.17509697259118
C            9.34762220814213       -0.87355814848520       -1.75493995707194
N            8.74873452106249       -1.91914291274512       -2.38115889935501
C            9.71265919657482       -2.72709872155495       -2.76321770517133
C            9.47692929953890       -3.97554435476428       -3.46731092573741
C            8.19233217532663       -4.37217750121196       -3.81514627856872
C            7.99075287829791       -5.55592164993521       -4.47865826546248
C            9.05240454638243       -6.39172190157513       -4.82250196935841
O            8.71587827436994       -7.56398154745716       -5.49906618853521
C            9.78901719812441       -8.38782808985171       -5.86968482893440
C           10.37717593074667       -5.99791907244118       -4.46500957157895
O           11.44079032281083       -6.84013889782059       -4.80003431382628
C           12.71088890122454       -6.42778574377045       -4.35015425607082
C           10.55058973350801       -4.79573230232779       -3.79897196366878
O           10.97854857101523       -2.29424709057493       -2.43552975062479
C           10.80682970209911       -1.10717201585387       -1.78920320029175
O           11.64050235308696       -0.35796932068322       -1.31873916010832
C            6.41901927324192       -0.45451444702507       -1.64700756593759
C            5.07140715761236       -0.22062215285268       -1.56877257049931
H            0.35577013559116       -0.20139905624915       -1.68215470041836
H            0.80314313554702        1.53154243425334       -1.74229596334250
H            0.76731398135787        0.67310427881354       -0.17485831624515
H            5.11676511804950        2.71741098587254        0.06865831932049
H            7.53973820408115        2.30941056111244       -0.06564268295396
H            9.40312789973080        0.94295845893422       -0.72669614190535
H            7.36190755223430       -3.73772862303479       -3.55848299462298
H            6.99708473382703       -5.86521091350136       -4.75211247204899
H            9.39870130574345       -9.25386583830859       -6.40680035323108
H           10.31525213265459       -8.71393550538360       -4.97049988203527
H           10.46653523086429       -7.82433471831174       -6.51417172986332
H           13.43683851500008       -7.18990268162280       -4.63774465617960
H           12.70537089802635       -6.33468721453429       -3.26289927098898
H           12.98116887633693       -5.48264605927767       -4.82381982090884
H           11.53289450210712       -4.46437849859615       -3.51957944424925
H            6.78326461213484       -1.34330347555322       -2.12635953638193
H            4.36516024215317       -0.91947205268621       -1.98437338199479
