39
 energy: -8.201522890513 gnorm: 0.000867225847 xtb: 6.5.0 (97a52f5)
C            1.04733528082542        0.27312034664650        0.86200921389020
O            2.40093870960141        0.53195919181061        1.06831071760721
C            3.13939751136090       -0.59566713980414        0.84071936696212
O            2.65814977596325       -1.66068636667534        0.50552142373014
C            4.60201886357360       -0.46869931805601        1.02511510049507
C            5.42993481061024       -1.57001172381866        0.85116298826585
C            6.78671308383859       -1.46021509951753        1.02083611696036
C            7.36825329466159       -0.23537329517207        1.37266522526021
C            8.78666665743775       -0.13114290872790        1.54581927156947
C            9.46041063790714        1.00553710265055        1.88992258165808
N            8.93766180432084        2.24345137585075        2.13831304705551
C            9.93731886673135        3.04816882861375        2.44007139348690
C            9.75455936496482        4.44948611857768        2.78302572863299
C            8.46820458997199        4.98261643359460        2.84864005256255
C            8.26991825622516        6.30154307326431        3.17588622002624
C            9.34993778900546        7.12145593307907        3.44528600923949
N            9.13791319848663        8.52339258611598        3.80105854877484
O            7.97802428448088        8.95008614994554        3.86548723579048
O           10.12537428707025        9.23506465982225        4.02477994944404
C           10.63168438009494        6.60671896061754        3.38094899530251
C           10.83545803231664        5.28809145636766        3.05385423424429
N           11.15941058354293        2.38890649676282        2.40313345033482
C           10.92140039983911        1.07536068707741        2.06166082487571
O           11.71165578975275        0.16127868375749        1.92950007092458
C            6.52114795334971        0.86416068859255        1.54551285418647
C            5.16643814047040        0.75080046667196        1.37476762551903
H            0.48128660561316        1.18613390292727        1.06038075964246
H            0.73139890883381       -0.52218275294443        1.54138425557403
H            0.90205348060174       -0.04382258131622       -0.17332608414503
H            4.98258229188772       -2.51221987728791        0.58094948668690
H            7.41779586203129       -2.32170098539090        0.88352892640123
H            9.37409926438492       -1.01890330478895        1.39388240506317
H            7.62972234614325        4.34068818319223        2.63988004981639
H            7.27666381397932        6.71540480406701        3.23034426088311
H           11.46317984164173        7.25894113046247        3.59145009325604
H           11.83584082748302        4.89780176617198        3.00125072559476
H           12.08205778070476        2.75282336590053        2.61469793641966
H            6.95091357881634        1.80974990135966        1.81727553881680
H            4.51938905146609        1.60135305959443        1.51065339919673
