6
 energy: -0.958561756030 gnorm: 0.000071506744 xtb: 6.5.0 (97a52f5)
C            1.03832387139701        0.07709663665039        0.06191997095296
C            2.35189612860277        0.07709663665039        0.06191997095296
H            0.47345626107094        0.84885097161535        0.54982639995586
H            0.47345604783719       -0.69465760826574       -0.42598637090881
H            2.91676373892918        0.84885097161505        0.54982639995618
H            2.91676395216293       -0.69465760826545       -0.42598637090914
