46
 energy: -8.748647959407 gnorm: 0.000589983960 xtb: 6.5.0 (97a52f5)
C            1.13004860903374       -0.52763761581039       -1.64725188953815
O            2.51710032837534       -0.51915700777474       -1.48979483311415
C            2.93205482436123        0.67383867942206       -0.95437384026434
O            2.18140000628020        1.58924214730273       -0.66806689556240
C            4.39154982967298        0.80926279766207       -0.72567217632104
C            4.90794630732569        1.95119920641630       -0.12727196620352
C            6.25834299753666        2.07763880967261        0.09036944644714
C            7.13419868455746        1.06163714331854       -0.28761914196775
N            8.49332618712040        1.18647296190201       -0.06538322359371
N            9.29410941963626        0.32809137974423       -0.46933465714859
C           10.65024915541250        0.45654995600507       -0.23579721603388
C           11.55904809026206       -0.43052553084348       -0.80602896278392
C           12.91454117996343       -0.30701815576238       -0.59432581712731
C           13.40027745582325        0.73946259031125        0.21734772336517
C           12.48372851369949        1.63631792905732        0.80497007244288
C           11.13610067496939        1.48222185270957        0.56692956299396
C           12.95792341273404        2.76032648543664        1.68073442576424
C           14.34296197418377        2.49758581327496        2.28822839914851
C           15.32327128793063        2.01261164446040        1.22207013722670
N           14.77558755611405        0.88762223740930        0.43581883309087
C           15.76909430545230        0.01568708955005       -0.22457437596143
C           15.20844879766841       -1.37471952123701       -0.51742967605807
C           13.85677002907218       -1.28244711875383       -1.23949594864860
C            6.61382580161215       -0.07995863226914       -0.89015000275661
C            5.26271489145180       -0.20364559525257       -1.10471252413336
H            0.82112504249780       -1.48994641190248       -2.06153390116822
H            0.83784071150447        0.27614586003387       -2.32646991392605
H            0.65447792901615       -0.37619926575618       -0.67574325715480
H            4.23009074061283        2.73554799040588        0.16230564213688
H            6.65902562595826        2.96195857926997        0.55381007781715
H           11.18590451264602       -1.22192411402789       -1.43010100892439
H           10.43359616789333        2.16713704628024        1.00428827252968
H           12.98100301904117        3.68167906031044        1.08736339901377
H           12.21979633926974        2.93549465144232        2.47352755423320
H           14.25855754096413        1.73831351635134        3.07499674662448
H           14.72686548993602        3.39960494582495        2.78434590239517
H           16.27166415656676        1.70196946994264        1.67333863409155
H           15.56052607059249        2.82175445598033        0.52449671791567
H           16.66154671766338       -0.04661435192474        0.40746243403718
H           16.07854041687659        0.50685034988727       -1.15253135449482
H           15.08267695821751       -1.92108531726556        0.42522594687924
H           15.92437548647430       -1.96228307103443       -1.10895882188764
H           13.37904977370064       -2.26930686274482       -1.28306794780055
H           14.01255349073320       -0.98173978963298       -2.28207498557689
H            7.29032380233493       -0.86322322608651       -1.18185643588651
H            4.85976968725729       -1.08710306131190       -1.56892915411781
