111
 energy: -22.986898688286 gnorm: 0.000410660474 xtb: 6.5.0 (97a52f5)
C            1.13142476940935        0.47340868878556       -0.41037629280958
O            2.51781392502219        0.62865873791798       -0.45349527567488
C            3.13555940601407       -0.59421452814960       -0.45845101472698
O            2.54240120371371       -1.65642882270214       -0.42529820721964
C            4.62077806342824       -0.57307110272659       -0.50865798711238
C            5.30727029861850        0.63006432453608       -0.56430395838027
C            6.68180593435364        0.64824454145570       -0.60866954825138
C            7.40867587676743       -0.53764995024886       -0.59872455826411
C            8.81542570138363       -0.49870881341605       -0.64379906994574
C           10.02644054876836       -0.34681933671741       -0.69173404715963
C           11.39053210437621       -0.01505656526687       -0.76642681187827
C           12.36208680176203       -1.02466554275172       -0.79976957907851
C           13.69544340907425       -0.73472814997427       -0.95574948400800
C           14.14792089804956        0.60757695696363       -1.05841141313256
C           15.52851978409721        0.91625490279312       -1.27528758118384
C           16.55117141170225       -0.14291217056384       -1.48314834934206
C           17.36417572710399       -0.56505989736943       -0.43108198875213
C           18.33043295164596       -1.52403581938688       -0.63222929635460
C           18.51091920830271       -2.07271508032411       -1.88581197600748
C           17.72565806244527       -1.65658668507478       -2.94185827712179
C           16.75742259833082       -0.69829191925583       -2.74650526883760
C           15.94755353378683        2.24371669320532       -1.30270176888576
C           17.38391390565681        2.56840914198384       -1.51177085723710
C           18.17076188209094        3.02434164458257       -0.45554470197766
C           19.50028744209958        3.32414215439039       -0.64868570909771
C           20.06949187609852        3.17433134177949       -1.89688574318572
C           19.30489491243179        2.72537068056092       -2.95432614517020
C           17.97458092027140        2.42583599257985       -2.76622468060915
C           15.01641248427416        3.29119662873556       -1.09505053834482
C           15.50489633431105        4.69654193139771       -1.07840138904026
C           15.56897014236195        5.41903312826939        0.11201785769997
C           16.02601900949691        6.71727918492092        0.12245042835528
C           16.42986177237612        7.31833346876347       -1.05223168785110
C           16.37630015354518        6.61730405522186       -2.23962548998855
C           15.91881593940914        5.31923286227603       -2.25483270263413
C           13.66166516511758        3.01381333148315       -0.89954883476908
C           12.77698896266751        4.17159155506131       -0.59814896679340
C           12.37055138495318        4.43444053703298        0.71083507126928
C           11.61198281851291        5.54559427596068        1.00184923062006
C           11.25198076855618        6.42108815011571       -0.00227567403145
C           11.66091037833903        6.18857705441412       -1.29948406197570
C           12.42147287421624        5.08044440102541       -1.59578131823755
C           13.19015122150410        1.65700431995945       -0.93282007051633
C           11.79177646139830        1.31918606674721       -0.84173962767064
C           10.70047519736598        2.32904039553505       -0.89695959476735
C            9.95429828467140        2.63658713847586        0.24171083664140
C            8.88474727693926        3.49548179198039        0.17000949001720
C            8.51498789958403        4.06104581143466       -1.04045720268788
C            7.35434215334351        4.98381997731509       -1.11315148251039
O            6.68472748995327        5.19790835075498       -0.11938257773615
O            7.11015685278488        5.54632997751566       -2.33823284172292
C            5.99754256038410        6.38588569839774       -2.27386739599937
C            9.23793375014873        3.74462535020887       -2.18095343836574
C           10.31049944752430        2.88836238277894       -2.11419598542758
C           14.49323283691833       -2.01108574714852       -0.95173746963710
C           13.50801370701531       -3.19143034510408       -0.75874145615104
C           13.78040149245486       -3.94286218281735        0.54253064414694
O           13.00838913791576       -4.80797066951918        0.89170968504844
O           14.89327765874796       -3.57006643700529        1.23766711976982
C           15.01805337220352       -4.33436427129994        2.39793083483149
C           13.61229656622942       -4.15525629780817       -1.93913629775747
O           14.70710295988294       -4.54539306356570       -2.27943489926289
O           12.44123390882401       -4.51454951509441       -2.53821165840720
C           12.68879939927046       -5.39820630630322       -3.58892939900501
C           12.12222933922597       -2.50400213009274       -0.70030137905016
C            6.71635702614757       -1.74238685532450       -0.54443064984760
C            5.34079733755661       -1.75777981638247       -0.49993048347439
H            0.65959263412612        1.45824869095551       -0.41216698411388
H            0.85683039438990       -0.06545431512011        0.49901605980010
H            0.80456158164290       -0.09377180706888       -1.28464744531104
H            4.74626398670152        1.54871170309190       -0.57068712307678
H            7.21263630411183        1.58362338726169       -0.64685561186679
H           17.22244562786657       -0.12962294132491        0.54291946756363
H           18.94667262487848       -1.84716734460519        0.19033359281536
H           19.26654311559334       -2.82531824008068       -2.04052452834205
H           17.86973939070048       -2.08374784548198       -3.92044733606039
H           16.14387092357892       -0.36798429522496       -3.56687024255685
H           17.72222630895661        3.13817986952188        0.51594735901225
H           20.09741289052831        3.67645640057291        0.17617882579840
H           21.11075122884025        3.40841824090913       -2.04591511888393
H           19.74968968956956        2.60881321176730       -3.92888124665079
H           17.37338804797245        2.07876817125178       -3.58833043757937
H           15.25639049750162        4.94511196334752        1.02617089158160
H           16.06824403478293        7.26491025700953        1.04947926497566
H           16.78790851823653        8.33465238688006       -1.04220747407354
H           16.69338351908776        7.08638723292405       -3.15641404342664
H           15.87511749871276        4.76817926193087       -3.17814967959859
H           12.66100538760293        3.75352041470127        1.49182669671145
H           11.29829339477607        5.73196142650157        2.01569752411280
H           10.65368416019841        7.28746618830353        0.22700358746977
H           11.38491648472508        6.87612772934474       -2.08187150502193
H           12.75229849094725        4.90111630868443       -2.60386504066308
H           10.22701992505699        2.18478773839484        1.17976238164876
H            8.31563760773700        3.73830426674876        1.05070589153921
H            5.82199026942746        6.82542092061042       -3.25801505610345
H            6.18446480762600        7.17701087627660       -1.54436854639411
H            5.12472493505534        5.80478198012885       -1.96805234814092
H            8.94224033885000        4.18041944072123       -3.11951530881474
H           10.85981418617859        2.63244266787484       -3.00368959605361
H           15.23214728533447       -1.99928036815810       -0.14517512412052
H           15.03121106286293       -2.14026634856796       -1.89425090818476
H           15.90023356026400       -4.00542981686204        2.95172240434857
H           15.12449148137159       -5.38672315809370        2.12520762301154
H           14.12573392422188       -4.20403164068239        3.01430493520646
H           11.74102984135944       -5.67795220388019       -4.05411281381886
H           13.18591367730917       -6.28957387864300       -3.19954944440957
H           13.33246144765985       -4.91238406866053       -4.32575908657317
H           11.61041006116163       -2.75215470101521        0.23404876231161
H           11.48955951059986       -2.84419732097884       -1.52525765527875
H            7.27147431431740       -2.66460259134681       -0.53712724970790
H            4.80360034444568       -2.68977345595736       -0.45812534617499
