38
 energy: -7.528182952385 gnorm: 0.000796873675 xtb: 6.5.0 (97a52f5)
C            1.29183102091378        0.18668831665468       -0.27672293747563
O            2.68544877387465        0.20316034786228       -0.35600481665168
C            3.21761099645963        0.91070990228289        0.69216883593695
O            2.55303998291192        1.43917047289023        1.56478797357321
C            4.69927856789030        1.01306420011463        0.72043000605905
C            5.33815948235868        1.69737609415149        1.74394117100500
C            6.71030636030248        1.79707752837920        1.76974214571108
C            7.48450735761608        1.21391581403061        0.77058794184953
C            8.88820886050916        1.32221105846403        0.79093210633581
C           10.10628259739059        1.42209560576172        0.81116204222726
C           11.50795930976397        1.53921102174949        0.83386086538630
C           12.23350647343434        1.67656807836325       -0.34726967346850
C           13.60242479361348        1.79109832823003       -0.32561318770798
C           14.30827707704562        1.77328636376391        0.88132517221363
N           15.71151756917021        1.88951000287263        0.90481977168823
C           16.50890694277055        1.83524917595854       -0.32051878510071
C           16.44930725094661        2.05582931746102        2.15664231222466
C           13.57486332805906        1.63706874949776        2.06365522839543
C           12.20597830135053        1.52290826175137        2.03901736841683
C            6.83880264794911        0.52515724694518       -0.25189550923318
C            5.46656223289513        0.42669791559387       -0.27550486881179
H            0.88927355806738       -0.36196271906086       -1.13071132841044
H            0.91583930204343        1.21196434859594       -0.28899888744373
H            0.98737697738832       -0.30225339353134        0.65102038949164
H            4.74066498170636        2.14998080783176        2.51644677757988
H            7.20129112178031        2.33170237460353        2.56472398614000
H           11.70222229089590        1.69464483997523       -1.28344078681179
H           14.13971753498362        1.91028193146254       -1.24921078701056
H           16.17472328144061        1.01472909322052       -0.95172246899018
H           17.56023509138490        1.67350086735283       -0.09184916770572
H           16.41175347689545        2.76977191168870       -0.86921939294140
H           15.97245359597738        2.81124979498272        2.77749781556073
H           17.47031800088158        2.37815576014867        1.96408257322736
H           16.47915239550725        1.11337453813300        2.69949320679475
H           14.09222771939631        1.60916660493330        3.00573469080842
H           11.65347528151225        1.41886668691004        2.95711718375335
H            7.42949157511392        0.06880131230561       -1.02768160150035
H            4.96931388778219       -0.10808856233474       -1.06622536506595
