30
 energy: -6.291566301498 gnorm: 0.000777088330 xtb: 6.5.0 (97a52f5)
C            1.21476106405381        0.15780295915741       -0.17400149317025
O            2.60554976175265        0.25011060697892       -0.24589708622773
C            3.14834070609449        0.28385986983456        1.01220598939672
O            2.49346517720953        0.24355695588242        2.03745811230093
C            4.63059855790592        0.37163596359443        1.07933492125678
C            5.28339195075253        0.31300048873134        2.30068184260208
C            6.65608895709310        0.38985681568484        2.36489391760922
C            7.41481742818366        0.52834213381590        1.20738543399608
C            8.82202342400610        0.60591563021033        1.26954173661199
C           10.04045444219100        0.66742159989176        1.31519866244658
C           11.44935142425228        0.74240983785422        1.36736032548435
C           12.17186672392034        1.27095399830702        0.30327611315419
C           13.54785305589530        1.34162954396808        0.35263478757314
C           14.22403569531045        0.88593740192575        1.46523299923177
C           13.52170366116224        0.35922958682789        2.52936682929501
C           12.14569118461544        0.28766698560680        2.48177000070770
C            6.75472248920514        0.58701318979053       -0.01548169685531
C            5.38194718169624        0.50978530649519       -0.07744455323656
H            0.80353388803108        0.13952433298389       -1.18571296475469
H            0.82316684570961        1.02206118618269        0.36692575410107
H            0.94050117437461       -0.75907866037237        0.35267274800801
H            4.69679117109274        0.20591196413805        3.19698632155309
H            7.15854588777484        0.34356711080577        3.31602664062679
H           11.64028633172855        1.62483477415028       -0.56334438665654
H           14.09568338151941        1.75255817300709       -0.47942469687454
H           15.29962641552933        0.94078131846234        1.50277033308417
H           14.04909882104266        0.00281848436575        3.39890248148534
H           11.59387810476642       -0.12308754451910        3.30982621904350
H            7.33386492633922        0.69360337193957       -0.91676381128257
H            4.87289016680595        0.55303661430627       -1.02479148052819
