63
 energy: -12.109543158684 gnorm: 0.000214600975 xtb: 6.5.0 (97a52f5)
C            0.90804768085618        0.45890306514112       -0.84247525124022
O            2.29363540082915        0.31560905008081       -0.77956734269470
C            2.90981290179458        1.50459392576173       -1.07044818434011
O            2.30978617188923        2.52878888280777       -1.34477929561917
C            4.38628023181635        1.49740397903795       -1.03440568723524
C            5.10336740197479        2.65322123495856       -1.32267738364968
C            6.47330233807297        2.65414871301145       -1.28035300943092
C            7.18056152719872        1.49214953654649       -0.93888252276970
C            8.66258679589290        1.48466589163298       -0.88017611366361
C            9.39715470334765        0.95315176126749       -1.97331774100924
C            8.72441990268581        0.49851925796456       -3.13465394230983
C            9.39491640719292        0.01439026140198       -4.20925220111411
C            8.80261237183834       -0.43402539659234       -5.43532055760424
C            9.62285216854557       -0.89814008917784       -6.47385299482841
C            9.08738301477128       -1.31814795622611       -7.66144829689794
C            7.70493822412386       -1.29948832541467       -7.88338622923187
O            7.24922013238813       -1.73948202546009       -9.12599967213985
C            5.85413086832803       -1.67600749896084       -9.30750025158265
C            6.88337867674688       -0.84098960466150       -6.84574895198744
C            7.41686466030788       -0.42019118624431       -5.65594247338064
O           10.75197403566125        0.89916045134846       -1.95439149211668
B           11.38601905881547        0.99672416454618       -0.64040837938919
F           11.15952884980285       -0.17784979270883        0.03570126954665
F           12.73048369510910        1.22042490411816       -0.77645740648581
O           10.76322867932981        2.08661554502499        0.11563690125531
C            9.40141477688246        2.09596272164305        0.17111853115874
C            8.83221395923027        2.75815177269529        1.29847910008840
C            7.52586737802107        2.76952514553079        1.67800685012141
C            6.98106220895955        3.47609310561204        2.79883221252602
C            5.60921235724960        3.37534652090319        3.07217669850760
C            5.04799524886983        4.04631071429058        4.12455156738204
C            5.82054633449316        4.85836780102636        4.96379819948906
O            5.16387302635027        5.50764047723552        6.00905853262294
C            5.98070197570009        6.33036089385807        6.80858426725396
C            7.19106252265163        4.96047877432528        4.69286508019137
C            7.75549682710102        4.28899467163149        3.64015665462207
C            6.44812222910525        0.32795175963185       -0.66819721102007
C            5.07861641434977        0.33560934171522       -0.71142914031953
H            0.44092144525505       -0.50192970640028       -0.61516147360840
H            0.62749077743130        0.78183107078295       -1.84773600245063
H            0.59313733278646        1.20890544993141       -0.11319006859511
H            4.56001173123823        3.54740596409424       -1.57694275702981
H            7.02420546934610        3.55135179546505       -1.50367374873774
H            7.65356143877391        0.55948466729551       -3.15497460222768
H           10.46770862104750       -0.02240190721488       -4.13653559914253
H           10.68929788198187       -0.91842358863702       -6.32862825638838
H            9.72216415684925       -1.67082466296483       -8.45517783630872
H            5.62504060579043       -2.02635726914737      -10.31507702241355
H            5.51416389910401       -0.64439334282050       -9.20393410632877
H            5.35752379838524       -2.32408100943834       -8.58376330714394
H            5.81764059509998       -0.81734136455976       -6.98221475570918
H            6.75941674483545       -0.07096307185121       -4.88029163559330
H            9.54463253998915        3.26984070324260        1.91819191002827
H            6.82432891729419        2.19212185985500        1.10921681826848
H            4.99402708246910        2.76185901104509        2.43658888443311
H            3.99463672365050        3.96552175602893        4.32764400441024
H            5.35485305233191        6.79140427814813        7.57420518796197
H            6.42832764627175        7.11456543799838        6.19608751547488
H            6.75034896010773        5.72764820422007        7.29315228753441
H            7.81197117599222        5.57585953568829        5.31798280248890
H            8.80915990892350        4.39442815918278        3.45489409900060
H            6.97983957480115       -0.57239832672883       -0.41280308989494
H            4.51722876206102       -0.55718609253076       -0.49423338073254
