57
 energy: -11.325847665638 gnorm: 0.000664191217 xtb: 6.5.0 (97a52f5)
C            0.68615380205877       -0.16679748029389        0.14981335524159
O            2.07668315668802       -0.16846669849433        0.26273984283518
C            2.65233405019692       -0.37562439985231       -0.96076829012222
O            2.02152138825486       -0.53157554393855       -1.99092182671168
C            4.13595068174858       -0.40623665982641       -0.98706188158684
C            4.81209097168557       -0.58768001421953       -2.18499417609903
C            6.18415848737271       -0.61956689060538       -2.21602942861075
C            6.92860761268745       -0.47059669164921       -1.04191154897354
C            8.41080187591226       -0.50624120361875       -1.07276277652615
C            9.13365021773247       -1.66691471168375       -0.73220112426826
C            8.70083357100625       -2.96579819254343       -0.32871041372275
C            7.30502347629574       -3.42636295019817       -0.13085775357983
C            9.83649714952190       -3.72799924396216       -0.11773765926581
C           10.97674142214285       -2.94356991336522       -0.39134830098349
C           12.39778928045114       -3.33079703431647       -0.31060307275809
N           10.52226722892267       -1.74016391119150       -0.75238489840261
B           11.43187250116524       -0.57479282646101       -1.15207794446349
F           12.24794859272406       -0.24227845667123       -0.08150027835074
F           12.18172291002090       -0.93527864531301       -2.26144142337068
N           10.54401082985577        0.62216914246211       -1.50532766891346
C           11.04736131896284        1.82974509741616       -1.88896475983587
C           12.41652512043169        2.12446753950499       -2.02008063958793
C           12.91548586386084        3.33295840708927       -2.40145155157473
C           14.29937321561269        3.61985128729777       -2.51855326429363
C           15.36774487717983        2.74227844761933       -2.26895954150082
N           16.49815601473593        3.43740775168222       -2.50202112191212
C           16.10704093259240        4.70802817862673       -2.88507312755139
N           14.80811925456771        4.84028106638106       -2.90227707753679
C            9.91008515093430        2.66883732407846       -2.09736634315469
C            8.77244947873932        1.95185585651986       -1.83100386909753
C            7.38661649019361        2.47244842983130       -1.91802787483207
C            9.17407494229196        0.61793814866040       -1.45346433076444
C            6.23869637892107       -0.28883886142378        0.16064910380037
C            4.86627264411791       -0.25725158582980        0.18362814648683
H            0.24722070712348       -0.00665857236401        1.13699908906682
H            0.35720867529411       -1.12843763316497       -0.25051731157146
H            0.38154864828437        0.63550468596087       -0.52607217476317
H            4.23929494837105       -0.70409698899196       -3.08901318120662
H            6.70463612705155       -0.76445753709996       -3.14673420056011
H            6.66789894350701       -3.10935009727134       -0.95648285731262
H            6.89131765345505       -3.02363926538219        0.79398339174694
H            7.25736990991574       -4.51418758269632       -0.07406928805339
H            9.84944699550436       -4.75500323737616        0.20442687084478
H           12.51110494790512       -4.35140958903567        0.05516056794522
H           12.86644347957537       -3.26252338966402       -1.29258577999060
H           12.93508132232050       -2.66229287931603        0.36253386191136
H           13.09987788957327        1.32647433127481       -1.79527562738128
H           12.23105217891210        4.12876806580012       -2.62854427471602
H           15.31098281964147        1.71313978525761       -1.95215721678000
H           17.46055093392811        3.10709719467304       -2.41617873213844
H           16.78891316942952        5.50751366892559       -3.14287410857130
H            9.93785853183733        3.70012838573544       -2.40157112403607
H            7.38277096590589        3.55274031835157       -2.06435576208415
H            6.83274517446657        2.25910732285386       -1.00388441988281
H            6.85335683956416        2.01979665496563       -2.75388651892233
H            6.80148177144952       -0.16927042570428        1.07007278067488
H            4.33627647739546       -0.11556797744084        1.10979953576673
