42
 energy: -8.409572986135 gnorm: 0.000734971260 xtb: 6.5.0 (97a52f5)
C            0.84086981411800        0.08902381309871       -2.23863229062786
C            1.84675348688054        0.31834102545048       -1.41337845634117
C            1.89154476486139       -0.28974955702989       -0.06379392348062
C            2.92003584640576        1.31478414846241       -1.77266499148032
C            2.65952143246431        2.67923608931088       -1.15325548256022
N            1.34276739594751        3.19695037855302       -1.47865245931317
C            0.41172784634353        3.28619383814055       -0.43562185793572
O            0.70440736870221        2.94819906371240        0.69707654175925
C           -0.92917785709061        3.79241392332883       -0.75348706184826
C           -1.87748199668283        3.92877719078905        0.23663604781136
C           -3.14733106649061        4.41053382862161       -0.04975023584256
C           -3.48065381100498        4.76075797376775       -1.33108791165286
C           -2.54547309411806        4.63474966705343       -2.36034866929785
C           -1.25145523533692        4.14510918638629       -2.08119385087159
C           -0.28090453264028        4.00887776138617       -3.13163076510346
C           -0.59146914100632        4.35054838921467       -4.41798386813203
C           -1.87522964687658        4.84578841350311       -4.72440345240788
N           -2.39723581059531        5.25148090380585       -5.90558882331661
C           -3.62815041928429        5.62610607132363       -5.63450879477434
C           -4.56488295154417        6.14240636765017       -6.66029793083312
O           -3.96906866734425        5.48563467401856       -4.31162987458247
C           -2.85275028183419        4.98937615805245       -3.71355241278695
C            1.05497753961632        3.49324316409870       -2.81781593494894
O            1.87812217886406        3.31825813967496       -3.69846034359144
O            4.19910923237015        0.86061172484940       -1.39246211080042
O            5.20341238991214        1.94363933957745       -1.58643610327419
H            0.04528575068768       -0.57690060813725       -1.97312999438095
H            0.78470699833244        0.57336408233554       -3.19233008501663
H            1.26932243710547        0.27513302491898        0.63225527573462
H            2.91292937251129       -0.29133400048651        0.31916535615740
H            1.53844946658638       -1.32124298542529       -0.08347036445611
H            2.95815640862089        1.42803409595674       -2.86661113470320
H            3.41886890650564        3.39033976632066       -1.48820760254986
H            2.74342702754609        2.60285063600581       -0.06608248128004
H           -1.61216765661684        3.65363386566809        1.24326052462322
H           -3.87303301926066        4.50935354772107        0.74104021097164
H           -4.46217816960267        5.13612360085997       -1.56433916547123
H            0.14314905267710        4.24269999050748       -5.19393578747143
H           -4.06488764847260        6.85833521005616       -7.31137494796149
H           -5.40976091951825        6.64016581157971       -6.18586537284039
H           -4.94718147038595        5.32809677842643       -7.27445821932124
H            5.79968867862585        1.59240550688095       -2.25376119579107
