40
 energy: -7.737347208082 gnorm: 0.000869352966 xtb: 6.5.0 (97a52f5)
C            1.15370598041252       -0.34762000886950        0.43156679667754
O            2.51521340076030       -0.11217280892708        0.62481954420819
C            3.24473814661826       -1.22109990790461        0.28173380809897
O            2.75294726542591       -2.25763393240838       -0.12711079067795
C            4.71357330085630       -1.10478015710684        0.43082290888131
C            5.54319749356432       -2.15856173164549        0.06960014200024
C            6.90603333925910       -2.05298648073206        0.19749932742960
C            7.48697377031533       -0.88507620116260        0.69428866510975
N            8.88088825672062       -0.78299429463668        0.79128975297411
C            9.61083869398457        0.29337417952528        1.30062587184869
O            9.07939743284061        1.26728442364299        1.80707600270973
C           11.08660153407270        0.22276113379048        1.22622048231750
C           11.85595320837596        0.92713055000140        2.14588964023606
C           13.22660817113635        0.89435848551052        2.09173294791871
C           13.89082317313302        0.15750185041692        1.10520537286664
N           15.29424868096644        0.12194231283257        1.04481271488895
C           16.12177657619350        0.82145561428109        2.02768288283635
C           15.99603368483699       -0.57322374531035       -0.03473338403011
C           13.11016985287416       -0.53758088852427        0.17522491552099
C           11.73988739728889       -0.50437250628921        0.23390095016758
C            6.64677432483542        0.16419062175274        1.06049634347653
C            5.28495215300085        0.05823842975718        0.93054247907846
H            0.59251518516720        0.54606438505893        0.71086323882793
H            0.84257811965502       -1.18938951386293        1.05319757885961
H            0.97456212895215       -0.58246752148673       -0.61932431116887
H            5.09614820352638       -3.05884181927578       -0.31595285836481
H            7.54142419850841       -2.87238103245848       -0.08923604297387
H            9.40551475084340       -1.59535234727894        0.49045216477534
H           11.35181712095288        1.50431831702247        2.90192918127122
H           13.79928723691947        1.44836665945114        2.81339286532838
H           15.96367734968453        1.89503295067904        1.94802080799733
H           17.17818923059384        0.61785350804562        1.86722266350982
H           15.86407820027309        0.49302956555762        3.03245234705404
H           15.69315688284452       -0.16495335411250       -0.99710820416464
H           15.76282810552061       -1.63577892466117       -0.00623302833231
H           17.07379819789858       -0.45812739526082        0.05881760696326
H           13.59267022283882       -1.10455737247584       -0.60046442219510
H           11.16104160504615       -1.02274530658635       -0.50949616021982
H            7.09000925606693        1.06336536824854        1.44724513110500
H            4.64064816723360        0.87333889540497        1.21202406719621
