67
 energy: -13.233834271113 gnorm: 0.000514739229 xtb: 6.5.0 (97a52f5)
C            1.80931702839891        2.60916363057020        3.10238894865891
O            2.82783861111910        2.21899279312876        2.23205284156817
C            3.73688596368166        1.42554037442700        2.88313864010061
O            3.65003545228833        1.11521103628105        4.05752104638095
C            4.87573787626236        0.94049225691262        2.06834386182369
C            5.87425835587641        0.16431403947305        2.64210338961598
C            6.93119327918754       -0.28280367468786        1.89010663774327
C            7.02197698880943        0.02599485937009        0.53137447457243
O            8.12532841553998       -0.43168556430888       -0.21032091633554
C            7.95043784558708       -0.76842902622898       -1.55320323532121
C            6.76409644540069       -1.29356568103206       -2.04769667309458
C            6.62187054903479       -1.61699319281837       -3.38326481990885
C            7.65249461000638       -1.42629977215479       -4.28117188875700
C            8.88315398215015       -0.89823265024036       -3.82438723826153
C            9.95823381993306       -0.68137950861718       -4.71925091612993
C           11.14542574400876       -0.17786931223285       -4.24157281780969
C           11.30275851225391        0.12514775703311       -2.89303583051449
C           10.27184666513482       -0.07033852416463       -2.01560302871988
C            9.04462432321653       -0.58232736416423       -2.45716173477533
C            9.79510010823536       -0.98622261686016       -6.14421048332406
O           10.71589974393918       -0.82634812321187       -6.92566618573183
N            8.54201971053638       -1.46986261855270       -6.58261954170586
C            8.40151482394056       -1.85612255439692       -7.95793208276790
C            8.76493561936408       -3.16242913922618       -8.32062806429673
C            9.33043375539750       -4.09745541815830       -7.27282179055120
C            8.62835030371361       -5.45703365488582       -7.26869050720063
C           10.84566995186929       -4.23350217892863       -7.42499067237000
C            8.65637913690364       -3.55512917035324       -9.63987963924346
C            8.18235929191739       -2.68395706517451      -10.59529144345482
C            7.82266574077189       -1.40199384860203      -10.24108068638533
C            7.92199077533305       -0.96446109147255       -8.93200400704530
C            7.57924831120568        0.48122583610251       -8.62136337138089
C            6.64039272243153        0.63358034407706       -7.42322908537851
C            8.84422673930499        1.32417510568650       -8.45644496686097
C            7.48257333049794       -1.76586653850523       -5.69252508587928
O            6.45180259447336       -2.28064717956989       -6.09226650899016
C            6.01795170210836        0.81336628928959       -0.03706931783057
C            4.96463381657717        1.25981975857699        0.71973891766213
H            1.08652155595188        3.22018644133350        2.55755616114871
H            2.23854479171728        3.18816399706739        3.92298073756391
H            1.31503064811538        1.72024831844937        3.50043312648116
H            5.80419500858819       -0.07759602748969        3.68863103910978
H            7.70763095810323       -0.88162879894777        2.33206179731151
H            5.95162558646349       -1.46517886086311       -1.36469109325775
H            5.69497241804589       -2.02552105570909       -3.74718322863384
H           11.95420145808005       -0.01891587651145       -4.93369978304168
H           12.24160262681599        0.51947414536110       -2.54078324219234
H           10.38355472492271        0.16780001732622       -0.97211328398071
H            9.13435329252458       -3.62586719300122       -6.29466810283599
H            8.81270400207652       -5.99557754971107       -8.19721112336344
H            7.54930963316308       -5.34125969106848       -7.16142836109799
H            8.98275676142663       -6.08653257630789       -6.45182378519369
H           11.09667660517142       -4.70226412249013       -8.37589101649200
H           11.27643590524981       -4.84331439921138       -6.63036983099512
H           11.32895550640900       -3.25561461633515       -7.40285118092778
H            8.95682906699274       -4.54855654412938       -9.92363619316223
H            8.10299465760401       -3.00161696433269      -11.62192972696157
H            7.46863150703533       -0.72210300312904      -10.99696600061516
H            7.03642093772919        0.86516574255889       -9.50344724052474
H            7.16618388345687        0.41838876088072       -6.49529831031392
H            5.79680651915637       -0.05417591467153       -7.49109244624918
H            6.24971907358523        1.64864077777391       -7.34250276339259
H            9.43232137417714        0.96928902614202       -7.61172904223786
H            8.60755795869472        2.37371709156272       -8.27937127582671
H            9.47934450387131        1.26304511375137       -9.34058064178904
H            6.09509909056456        1.08378906731120       -1.07502412189176
H            4.19402729784534        1.86963608205628        0.28050271520539
