56
 energy: -11.372082121807 gnorm: 0.000517658964 xtb: 6.5.0 (97a52f5)
C            1.30916004974712        0.03225634041128        0.06652455738986
O            2.62147917163308       -0.39246711468837        0.26158001909687
C            3.10332815970391        0.08847625705268        1.44787467347115
O            2.45618807486454        0.79138080818213        2.20148270197093
C            4.53497263874414       -0.19728574960047        1.74851247923077
C            5.28440100080111        0.86551011700757        2.19344128159734
C            6.66018719097189        0.79731285452859        2.27611599479197
C            7.35368269729943       -0.33356496388681        1.87603181724519
C            8.81224708798403       -0.36217462099093        1.84755265159136
C            9.56617896206239        0.75822683814818        2.15866068115783
C           10.94203447933597        0.75653160140575        2.04644923804339
C           11.63300148018858       -0.37099047317852        1.67103481606366
C           13.07141273094609       -0.18393670719333        1.32666803726120
O           13.52992513539650       -0.66803727514073        0.30936744793111
O           13.78784379969843        0.61636950935753        2.17420848592664
C           15.08245074683919        0.79753547296290        1.69106546731011
C           10.92095893483681       -1.59229798886597        1.46988052267208
C           11.56730671118586       -2.84932583149873        1.26697397113027
C           12.99375257021801       -3.11374941821919        1.60738271862409
O           13.63814442243453       -3.90030804361171        0.93897657266373
O           13.47457199643846       -2.50901150225802        2.73577974584535
C           14.78624287132775       -2.91142582978509        2.97651296506515
C           10.81769951406698       -3.93688969722680        0.88725595838027
C            9.44382159981066       -3.86575732334126        0.77359699069359
C            8.75011652761067       -2.70769199505543        1.08688800928132
C            7.29230716158829       -2.65717087358623        1.05195838586858
C            6.54022633846516       -3.74817007406829        0.64711857240437
C            5.16213914493965       -3.74038143921488        0.71878851419085
C            4.46944294929741       -2.63704140579179        1.15765992233769
C            3.02016706402139       -2.84011426722895        1.44403790100921
O            2.54080180661135       -2.46837970512357        2.49828366272460
O            2.31748026872410       -3.52867061764819        0.49277880215063
C            1.00727557118704       -3.74203894203526        0.91666513465496
C            5.18195360883666       -1.43636725054554        1.45682329695624
C            6.60886513767481       -1.47586464811515        1.46212077842011
C            9.49399287941369       -1.55440667713313        1.46921284388911
H            0.90273916201437       -0.46765661920552       -0.81592320650500
H            1.30579148852161        1.11496072075193       -0.08155204494548
H            0.71717516621914       -0.22019119197631        0.94991890832115
H            4.77490233100502        1.78427006313624        2.43446852198928
H            7.19083941422908        1.66264003844262        2.62743745608559
H            9.08299539725013        1.67392139717589        2.44458860626141
H           11.49657000048857        1.66582291713911        2.21157581970623
H           15.03360025471824        1.31820161164571        0.73151320167670
H           15.55435662780346       -0.17814820650974        1.55584133346373
H           15.64927942648469        1.39174468887582        2.41164196154676
H           15.17488442011832       -2.35535625160314        3.83302910716155
H           15.38966523514242       -2.70767229607379        2.08842547399839
H           14.79525999874937       -3.98326211415883        3.18963235825195
H           11.32519278717847       -4.87292028099372        0.71973833946901
H            8.91324395237264       -4.75363038293977        0.48395771983134
H            7.02444597832126       -4.64211865354462        0.30040808891050
H            4.60587396890549       -4.62989537344744        0.47190566893974
H            0.54513489130083       -2.78098883324968        1.15258330190297
H            1.02070605569131       -4.37180734079210        1.80958880832772
H            0.45357295859581       -4.23833325670039        0.11616495656502
