37
 energy: -8.128560219322 gnorm: 0.000547300691 xtb: 6.5.0 (97a52f5)
C            1.12919217581018       -0.13932357329676        0.43596610038173
O            2.50947237659457       -0.04645446932429        0.61286052364322
C            3.14452836315222       -1.04379281875027       -0.07655196934813
O            2.56882415136363       -1.88349255396082       -0.74262886024203
C            4.62544866049439       -1.06863011492734        0.02174084266818
C            5.30117377781019       -0.14952461398865        0.83151339239000
C            6.66206346564368       -0.13457138425442        0.86638098309857
C            7.41345716832641       -1.06136970547744        0.11613732195721
C            8.82255756654498       -0.95630472425209        0.04237296730892
C            9.55739786265108       -1.77373664094915       -0.76088063715991
C           10.94364176790421       -1.58554437313663       -0.84777130455737
N           12.09273367893058       -1.43750759369954       -0.92679560054351
C            8.90972804762433       -2.82970252832841       -1.48801808159894
C            9.67145094982095       -3.65120936365060       -2.36038198414717
C            9.11357762325490       -4.68716970557229       -3.02174708699245
C            7.75842730752747       -5.04366800901374       -2.79561458936258
C            7.20930357617229       -6.19278937759321       -3.39592381758523
C            5.95125307545608       -6.61262650362391       -3.07937879266823
C            5.20759868985714       -5.91965716124450       -2.12800778564907
C            5.70967226682501       -4.79159873456627       -1.54484360269056
C            6.97273136829115       -4.27433553345555       -1.90305368868827
C            7.52939512838318       -3.05827553417662       -1.33847958559389
C            6.74607890270749       -2.06591514348886       -0.62714340369559
C            5.34322433786103       -1.99055542526601       -0.69783440463471
H            0.64215799812550        0.65915111072411        1.00078561183312
H            0.78653460867861       -1.11236195356263        0.79620579838388
H            0.89576662873515       -0.03846624701052       -0.62644070485628
H            4.72572823565627        0.56440010778364        1.39571682823320
H            7.17975983275994        0.60348722966360        1.45452777689093
H            9.31963248878589       -0.17880050391612        0.59451486036904
H           10.71335473869574       -3.42215259822007       -2.49931988162722
H            9.70597558868127       -5.28883819731078       -3.68926601496059
H            7.80588341464514       -6.75189281727059       -4.09616401160771
H            5.54373316433268       -7.49799504180859       -3.53904351765478
H            4.23628099857115       -6.28797169052837       -1.84004086832214
H            5.16246735404374       -4.34286415894654       -0.73609169642870
H            4.80012265928172       -2.60912965359946       -1.38726111654361
