41
 energy: -8.040226976593 gnorm: 0.000803774773 xtb: 6.5.0 (97a52f5)
C            1.28887041192607       -1.25341579512160        2.44792418308475
O            2.42957952270626       -0.97424007600353        1.69572173726690
C            3.47783138997829       -1.75923154172892        2.09987703770875
O            3.40622433263957       -2.57865560966020        2.99522065281231
C            4.74728089296613       -1.56808638625560        1.33679058532500
C            4.64617938396203       -1.54282664627636       -0.04547307066866
C            5.75699741254505       -1.37793416172498       -0.83532449883283
C            6.98835174165122       -1.22790779143112       -0.25232491943690
C            7.15539691667236       -1.23105080368268        1.13581687916614
C            5.98942116527325       -1.41202748363747        1.97890969840385
C            5.94228384296625       -1.43786682000011        3.40540237632734
C            5.92516187561853       -1.46878626977822        4.63836425090073
C            5.93097282030220       -1.50693730965655        6.06152970663675
C            4.65866441950853       -1.73143592955822        6.64107125840370
N            3.53138662457698       -1.90834930447109        5.85679660526839
C            4.51485171475060       -1.77675420030958        8.03033585775454
C            5.59237136280381       -1.61536155944732        8.86263973242939
C            6.84091939222696       -1.40419764843355        8.33273418014699
C            7.05868287291609       -1.34280525641713        6.95213717385348
O            8.41281126199235       -1.11925823966745        6.60858215973140
C            8.44089145241642       -1.08930252667637        5.20679032363136
C            9.50569096364646       -0.91389099105337        4.08990098889142
C            8.47383740785216       -1.04364668830655        2.93684847022376
O            8.49904428655941       -1.04282354672040        1.53580784065831
H            0.45743834640224       -0.65430305165631        2.06905885813146
H            1.47716690966152       -1.00068990594192        3.49345636669622
H            1.05063691336404       -2.31646269241086        2.36193358479349
H            3.67319192193373       -1.65428275282470       -0.49330740180408
H            5.66039172075373       -1.36515079636456       -1.90876390698059
H            7.86503003777761       -1.09598852682105       -0.86154056817342
H            3.57604665100322       -2.12149503422092        4.86380582697136
H            2.66210920712600       -2.21823533600584        6.25537323518068
H            3.53562467768983       -1.94280106253825        8.44351561021383
H            5.45939021400763       -1.65524501453339        9.93144277697902
H            7.69125396293592       -1.27876748574704        8.97959373667100
H            7.71021148799057       -0.28612929885087        5.01523577684315
H            7.98003642091116       -2.06670833850212        4.98676784933627
H           10.26087446497431       -1.70421320013228        4.08473626406946
H           10.00423268289769        0.05861499660234        4.11648619922882
H            7.74552149723891       -0.23773444716996        3.12459643675882
H            7.99542941487000       -2.02102546686386        3.11480014540886
