46
 energy: -9.046838683357 gnorm: 0.000507054408 xtb: 6.5.0 (97a52f5)
C            1.33135893994026        2.51957719935614       -2.46793022967825
O            2.34399558711313        1.94603211631695       -1.70526106777679
C            3.52720028415021        2.59399020994002       -1.94223875737041
O            3.63182442926550        3.59448815041853       -2.62590215996909
C            4.73760435944887        1.99154081778825       -1.30827989008669
C            4.77765940115216        1.87660260619442        0.07155378552707
C            5.87697236437485        1.33438138121638        0.69404243944728
C            6.94264884340893        0.90090723004972       -0.05480777506921
C            6.94732852708734        0.98419327534897       -1.45020992184134
C            5.80810881004864        1.54352545005009       -2.09662501039345
C            5.68619805682533        1.65643871225444       -3.49158873889626
C            5.70696295714006        1.69376556815177       -4.71659608450367
C            5.87707731259745        1.58644387626721       -6.10247212650208
C            4.76318899009889        1.44172291062041       -6.95273679653509
N            3.42520541715407        1.53527737090400       -6.46091896987093
C            2.79078308331953        2.63984424871292       -5.89653231363219
C            3.56836310395679        3.89501111892224       -5.70213753146529
O            1.62235066541809        2.59438277866949       -5.57183452197432
C            4.96759036077535        1.19195512394304       -8.30856383516692
C            6.23664868549915        1.11131834819372       -8.83242101511753
C            7.33111788357057        1.27635731261630       -8.01879926955454
C            7.18098116019627        1.51559752946442       -6.65142012122534
O            8.33511589171263        1.68669449103003       -5.84640195068384
C            9.13600280605436        0.50252043992548       -5.68083663873422
C            9.38130336765208        0.23499948228013       -4.19620379654235
C            8.08549319360396        0.51134889035152       -3.46701072756650
O            8.11501297014916        0.49102903652574       -2.05511482561186
H            0.39223029575445        1.99804919528330       -2.27082359979870
H            1.60435072716636        2.41660834784995       -3.52112422061556
H            1.23766151413263        3.57722027430833       -2.21092006512166
H            3.93522825813064        2.21877782926413        0.64799436464563
H            5.90146046744944        1.25064898952199        1.76833673797648
H            7.80747516770776        0.47768228299252        0.42482911323580
H            2.80057567504815        0.76875754246057       -6.67825240416589
H            4.48735521079102        3.88716280143889       -6.28570224083680
H            3.82772726642595        4.02136009624469       -4.65257031193330
H            2.97703173562113        4.75574312185157       -6.01016756688009
H            4.10911234206619        1.07684461972765       -8.94663836296983
H            6.37256464788722        0.92465229129177       -9.88508549911471
H            8.32565224420088        1.23091501930982       -8.42542751890412
H           10.06824513290369        0.63531106213736       -6.24224138477850
H            8.59132632466200       -0.33119959917814       -6.13928679630413
H           10.15552468776471        0.90749631641599       -3.81101475890264
H            9.73361738695193       -0.78532815479399       -4.00843820801579
H            7.30025043277040       -0.17859061828738       -3.79772465338113
H            7.79328303086135        1.52889290664055       -3.74320477333518
