42
 energy: -8.415782267970 gnorm: 0.000762074058 xtb: 6.5.0 (97a52f5)
C            0.79362708875360       -2.11616224960839       -0.46065014687246
C            1.80624804533796       -1.26955676669309       -0.51922266392496
C            1.84542159719454       -0.05435189886739        0.32684049699540
C            2.89589659274874       -1.44642826510175       -1.54728532116256
C            2.69512588480471       -0.53784425403278       -2.75051981344539
N            1.38492076441002       -0.69907260855170       -3.35361069305770
C            0.45442792401768        0.33075226232994       -3.16138531986160
O            0.74522900109816        1.32916990513027       -2.52764214046327
C           -0.88443713804487        0.16256405743545       -3.74021988144937
C           -1.83501835605359        1.14981297501287       -3.59941862131245
C           -3.10316225428675        1.00505347471434       -4.14463045586764
C           -3.43257041695750       -0.13043689779881       -4.83561259894361
C           -2.49548103530189       -1.15310153969834       -4.99687638533158
C           -1.20307451288574       -1.01693556880141       -4.44614782406737
C           -0.23083075485349       -2.06318993006278       -4.60080826811398
C           -0.53781201606224       -3.20661594530093       -5.28416736835832
C           -1.82080409865219       -3.37163265751494       -5.84882066012928
O           -2.36468497106262       -4.41306409616610       -6.56050824766213
C           -3.61099957322792       -4.01658300392853       -6.82785651058866
C           -4.59330074601080       -4.82324547040598       -7.58802113873809
N           -3.90295289720260       -2.78857190005603       -6.33276045059756
C           -2.79623613405586       -2.35700048619771       -5.70930953400009
C            1.10135940473857       -1.90370961600146       -4.01065898714129
O            1.92694318448934       -2.79657910727943       -4.08071123105425
O            4.17299055125073       -1.22001919114428       -0.99439921907791
O            5.20269477354874       -1.21934761663311       -2.07109785662953
H           -0.01128658677643       -1.97104138690319        0.23076901627366
H            0.74182824065841       -2.96595363083220       -1.11052677302104
H            1.47713458064825       -0.26059752268478        1.33207810429261
H            1.23391129349217        0.73656548504936       -0.11017934706527
H            2.86753025121214        0.31658233477639        0.41277031080414
H            2.90176546913287       -2.49136945081469       -1.89219897493909
H            3.46378139916823       -0.73978249775796       -3.50078390939555
H            2.80950343586010        0.50377251427723       -2.43993433877072
H           -1.57321876787781        2.04153838499984       -3.05579408078857
H           -3.83091860276325        1.79065355441334       -4.02265514894442
H           -4.41281040115338       -0.25185637368090       -5.26259577195799
H            0.19831515903291       -3.98169439284488       -5.38885909072937
H           -4.15248493243388       -5.76826873102562       -7.90363988135396
H           -4.92405726567966       -4.28458705364266       -8.47493946859744
H           -5.46662002565426       -5.03894207853157       -6.97407721492302
H            5.76762684539412       -1.96673275955711       -1.85479259001745
