37
 energy: -7.607917625749 gnorm: 0.000533826537 xtb: 6.5.0 (97a52f5)
C            1.01371573140295       -0.02910417055861        0.64818738175756
O            2.40232450373994        0.08833081766497        0.58838986588554
C            2.91674086591113       -0.78711041560757       -0.33242546965292
O            2.23435316976538       -1.55554743494321       -0.98285915982151
C            4.39815628063488       -0.75356151822346       -0.48657442881183
C            5.17027462167090       -0.35647790960242        0.59545669642951
C            6.54270955585801       -0.31060535031551        0.50971610445665
C            7.17027861692259       -0.66133336501176       -0.66735808209968
C            6.42152524540754       -1.05104687542540       -1.75411054194668
C            5.03334586148978       -1.10293560655222       -1.68861495672197
C            4.33282869842053       -1.48590327562798       -2.84562395979105
C            3.84049458339714       -1.82210440920804       -3.91186268146755
C            3.43520385819877       -2.19035818076853       -5.20440328808943
C            2.10122463814058       -2.43596431143642       -5.49777094333073
C            1.70591039559492       -2.74262448796964       -6.78105174570290
C            2.64008222354381       -2.79913597695363       -7.79798441111944
C            3.96659501224471       -2.55938019007744       -7.53106705620760
C            4.39272245655421       -2.26777082135178       -6.23619507882105
N            5.77388762910833       -2.01881016611714       -5.96791853177383
C            6.58724438957060       -2.63459626731713       -5.01506025151756
C            6.13327642409449       -3.91686661980339       -4.40572014798364
O            7.64977586633911       -2.15151571595987       -4.68289341970666
H            0.62373713040277        0.70204192881284        1.35966755285307
H            0.75235017206060       -1.03895612337536        0.97223749207147
H            0.59436450579318        0.15821027720527       -0.34304464818131
H            4.67238739405536       -0.08066459908442        1.50938108206991
H            7.12646160626247       -0.00163103747481        1.36132478008610
H            8.24498463949980       -0.62756845375572       -0.73771240498524
H            6.90777141507986       -1.32241499289065       -2.67753681838446
H            1.37549631352964       -2.37296269193280       -4.70498870414168
H            0.66642408778483       -2.93020899999780       -6.99419340492529
H            2.32685783148124       -3.03278469943663       -8.80226701631777
H            4.69892214295259       -2.60799794247707       -8.31760537657376
H            6.20373669952738       -1.23521044570175       -6.44397758959015
H            5.22956434176184       -4.28576045453901       -4.88821740671365
H            5.92706415928490       -3.78617848957864       -3.34472794805643
H            6.90670693261680       -4.67651102464415       -4.50720548313496
