27
 energy: -5.321383831254 gnorm: 0.000994461963 xtb: 6.5.0 (97a52f5)
C            1.18983849243523        0.23238185622114       -0.03732639208695
O            2.53309508792886        0.35665795986976        0.31406759053281
C            3.18368852251065       -0.83475494839145        0.14093609732029
O            2.64310807280121       -1.84757580352018       -0.26286236955518
C            4.62427327915042       -0.84570537827378        0.46967626649618
N            5.43610695562984       -1.89429778928573        0.26505902554738
C            6.63231834721547       -1.51049100354044        0.67989430548094
C            7.82118639270047       -2.36005116624905        0.63354539447653
C            9.04507261716637       -1.87222471906137        1.07417853536202
C           10.16986812556268       -2.66474789484784        1.02869188360489
C           10.08723443971259       -3.95418901381535        0.54276777018649
C            8.87663153966476       -4.45060577137389        0.10251201034043
C            7.75058008554132       -3.65995946369690        0.14699670200396
O            6.63744509734802       -0.22393035651689        1.15983992084132
C            5.36310582783610        0.20821707750935        1.02656727998245
C            4.85189123265535        1.53709002233088        1.41531875376731
H            0.70936078673996        1.21045779198516        0.04150020184364
H            0.70785560955791       -0.47548438371416        0.64143374843843
H            1.11925877420503       -0.13524039186752       -1.06406245022304
H            9.09729682783240       -0.86457067141103        1.44967841098526
H           11.11525574013418       -2.27757411587152        1.37196553767170
H           10.96844304928613       -4.57343225899314        0.50636788481967
H            8.81268469277671       -5.45723030586493       -0.27724500144291
H            6.80253674739857       -4.03676434279131       -0.19528401981078
H            5.67729629935745        2.22370629808400        1.59996067344169
H            4.25290272206758        1.46711091871787        2.32286798522628
H            4.22554463478670        1.95555785436789        0.62753425475148
