24
 energy: -4.675409245277 gnorm: 0.000622238133 xtb: 6.5.0 (97a52f5)
C            1.28036932918238        0.10105816393018        0.23783793245499
O            2.64250451698223        0.17711727048355        0.52150651075965
C            3.28546645838526       -0.94145398265707        0.07008471176207
O            2.72347769455814       -1.85868401097417       -0.49699813299286
C            4.74182040439222       -0.99525802676684        0.30433987079054
N            5.54169440341628       -1.98384988988353       -0.12705719924685
C            6.75808065459072       -1.66751145558297        0.27721101887268
C            7.93879250807006       -2.48963059918401        0.00544601172588
C            7.93636513200072       -3.69479147189257       -0.67705052966225
C            9.25028280318797       -4.14031422910764       -0.71206009342505
C           10.00602958092082       -3.19885640999067       -0.05502785161859
O            9.21865404971243       -2.18295861552343        0.39005170427380
O            6.79152437595200       -0.48955401603957        0.97359077664289
C            5.51162446259122       -0.05078076760365        0.99401824154569
C            5.02762953699343        1.18449823875399        1.64154625156525
H            0.79498833554243        1.01262461888918        0.59492894172316
H            0.86087528312850       -0.77164564481668        0.74529929231243
H            1.14724804223684        0.00141276155109       -0.84257001325745
H            7.07337649755537       -4.18494243496194       -1.09644292048419
H            9.60765940373213       -5.05186299731777       -1.16388426370397
H           11.07918736068548       -3.23999221853321        0.09902881782994
H            5.86415672559345        1.84282281726710        1.87412805577714
H            4.50462560438983        0.95188945862160        2.56896161964962
H            4.33789683619965        1.71868344133900        0.98765124670514
