48
 energy: -9.110323063675 gnorm: 0.000849905003 xtb: 6.5.0 (97a52f5)
C            1.60219347040636       -0.55443656651592       -0.28052351412997
O            2.93101308509938       -0.55184862634693        0.14634352709362
C            3.76281991702301       -0.93313675733842       -0.87417929547228
O            3.37265826388959       -1.23284116395136       -1.99037226240784
C            5.20214542808329       -0.97010105916983       -0.56612249334240
N            6.12430661318209       -1.33217087214032       -1.43688861938962
C            7.31604004249407       -1.24814721351532       -0.79082015425828
C            8.63525310796654       -1.52693011944750       -1.21466391423685
N            8.89589398421655       -1.98456730666326       -2.51316168283314
C            7.82577802354798       -2.29766199493694       -3.45319014237128
C           10.25529314288765       -2.33290252570896       -2.90079019794308
N            9.63059922974437       -1.34768789778672       -0.36278256197115
C            9.33366446235085       -0.91806925997744        0.88636783792146
N           10.43303699490288       -0.72957432293969        1.75434778528066
C           10.23395749214224       -0.14058192428631        3.06891113722671
C           11.79497060696293       -0.82719747155384        1.25215129773536
N            8.13653923886980       -0.65318824984411        1.39157269829436
C            7.13274853661560       -0.81702771752258        0.52786853896363
N            5.77105105014091       -0.63097378010757        0.67026622215712
C            5.04809461893676       -0.24449144255092        1.88955818739086
C            5.90172276914897        0.41954939003603        2.92000965746591
C            6.25277834051650       -0.23980186523206        4.08749062626049
C            7.05386976420119        0.37438678711573        5.02724426340392
C            7.51943619327483        1.65350168591880        4.80734879225567
C            7.18412895609097        2.31593129504433        3.64545711599520
C            6.38014015558138        1.70158903477920        2.70824705385599
H            0.95838096106231       -0.24152911939152        0.54418783274613
H            1.32897750024080       -1.56224244564113       -0.60085877973038
H            1.49108238745995        0.13832578641171       -1.11759456284815
H            7.19482459072599       -1.42313823461761       -3.59698459866644
H            7.21571109909907       -3.10757881936072       -3.05894213935594
H            8.23135269456544       -2.60063424588557       -4.41623721074751
H           10.96479081545543       -1.86721607287061       -2.22013315444056
H           10.46326854505675       -1.98405649493218       -3.91038055700449
H           10.38789210520430       -3.41219828975307       -2.86049956706018
H            9.23893125965892       -0.38642682556768        3.43343277774882
H           10.32727331018426        0.94176434472569        3.00845936985530
H           10.96814596154402       -0.52381501909411        3.77470990106228
H           11.83544594758807       -1.53958108580790        0.43095212057191
H           12.46785183338405       -1.16375055747080        2.03828992905210
H           12.12677182842513        0.14409510852992        0.89097057222716
H            4.57851647724167       -1.14133929764077        2.30158667733114
H            4.23415169234726        0.42622391925407        1.60153740969324
H            5.89815675489757       -1.24260067322175        4.25326703662346
H            7.31842394855700       -0.14773683970632        5.93219846579083
H            8.14660167183909        2.13295112337986        5.54093548192383
H            7.55172156080080        3.31335241161145        3.46816585038941
H            6.12400356638573        2.21160127169373        1.79543724189104
