42
 energy: -8.242316438994 gnorm: 0.000517029075 xtb: 6.5.0 (97a52f5)
C            1.88705250256101       -0.25347443058587       -0.13273134721076
O            3.17253764995578       -0.29436034336570       -0.67324734221417
C            3.91055713250308        0.77237090549173       -0.23285918512355
O            3.48020349330093        1.62681169344637        0.52350092010592
C            5.29849383532916        0.85069761579250       -0.71447140539731
N            6.15172086016802        1.78058698424143       -0.32967127413745
C            7.33074054976387        1.50025224397203       -0.94403856423797
C            8.60045770628292        2.11554739222557       -0.87190161269614
N            8.80237902848384        3.26198327518659       -0.09257947396534
C            7.71267622888821        3.91684514565052        0.62121521252160
C           10.11717859795069        3.88481041186529       -0.03266662709045
N            9.60534670445081        1.58426501672202       -1.54705851088166
C            9.37038903387537        0.47034785590262       -2.28537505059903
N           10.46542571451759       -0.05259485454386       -2.96207502904625
N            8.22164049924976       -0.18299318695847       -2.42225103938929
C            7.21186321543891        0.35437381989660       -1.73717749229542
N            5.90116104289348       -0.05295010535586       -1.60259393151089
C            5.36540792639081       -1.30753886836914       -2.13986098992587
C            5.81200745454574       -2.49845929355772       -1.35582810741975
C            6.01659825311942       -3.72237277312380       -1.97283319169536
C            6.41900273011730       -4.81925378704864       -1.23977154968295
C            6.61727707383797       -4.70695088363285        0.12022007689713
C            6.40967900726752       -3.49640001186924        0.74648098834074
C            6.00703894440631       -2.40201067185679        0.01127808531898
H            1.32069146802331       -1.11628817061037       -0.48991903623518
H            1.39444240597891        0.66948912488968       -0.44685973183943
H            1.95488405031515       -0.28036219799872        0.95717725250840
H            7.27690596009640        3.22646889030899        1.34025603503486
H            6.94170194547533        4.22011578586905       -0.08388928333625
H            8.07066249601993        4.79729080149102        1.15075724473876
H           10.85417293282800        3.24095048481417       -0.50760557553096
H           10.41051490458146        4.04463389890762        1.00300342392160
H           10.10039845293369        4.84051157171119       -0.55264431451658
H           11.39231387039706        0.26032293598538       -2.75106988852321
H           10.42673225535945       -0.97277416152229       -3.35371568832334
H            5.69088255710517       -1.39358779425632       -3.17962500719061
H            4.27445105218751       -1.25064479085225       -2.14893295841227
H            5.85973773183939       -3.80971236695259       -3.03424961777221
H            6.57791057701288       -5.76534394935595       -1.73107559141145
H            6.93201272106202       -5.56420242555525        0.69252823733716
H            6.56248933959153       -3.40502067847339        1.80943633557977
H            5.84510009390418       -1.45388010852053        0.49316460530820
