37
 energy: -7.325631698049 gnorm: 0.000743768139 xtb: 6.5.0 (97a52f5)
C            1.60678040703020       -1.08081887967091        1.42755747697872
C            2.49500931382856       -0.59213917377253        0.58020582923587
C            2.69226088009552        0.86767040930806        0.42871160621249
C            3.24158773049651       -1.50806070589211       -0.35709982179506
C            2.58044924892899       -1.58330931604888       -1.72486569463796
N            1.17691104395533       -1.94887087193381       -1.64881775060204
C            0.84099950390306       -3.20998057091350       -1.13606033897829
O            1.69449296694479       -3.99235734988101       -0.75881604818791
C           -0.58573076370912       -3.55285008781081       -1.05269186858860
C           -0.98451716092186       -4.77987368921558       -0.58658641607962
C           -2.33669878369619       -5.11010932029524       -0.50260004814595
C           -3.29352435290231       -4.21481469346778       -0.88074830905186
C           -2.93296704426220       -2.93867393659495       -1.36317823513931
C           -3.89237921966661       -1.98315809780378       -1.76051273993781
C           -3.50455361215297       -0.75902373131023       -2.22020136153506
C           -2.15200207149490       -0.43087307466904       -2.30681079121306
C           -1.18344681704339       -1.32799701984188       -1.93433802299934
C           -1.56210156811330       -2.60553371060636       -1.45103336152658
C            0.24010328212124       -0.97936250100077       -2.03302908239825
O            0.59427648237405        0.11617727839179       -2.43022940497318
O            4.58936697631359       -1.11979102581215       -0.50229505174011
O            5.24239239428276       -1.92675854419199       -1.57235060900751
H            1.03061882735580       -0.43745325676181        2.06085493201560
H            1.42650174555280       -2.13461817650256        1.49354863632873
H            1.90410298091441        1.29935624388185       -0.18980262077517
H            3.64997148557744        1.07606051138343       -0.05011984447143
H            2.68418831465678        1.36974909003638        1.39664571829433
H            3.26920600784135       -2.51967168333944        0.07430810329812
H            3.10632896322082       -2.30584989610444       -2.35343206004413
H            2.65965810924338       -0.61014503966043       -2.21570899429636
H           -0.23082901207800       -5.48698811452719       -0.28513018414432
H           -2.62456069517802       -6.08138899908099       -0.13486786152351
H           -4.33610925772639       -4.47275771168377       -0.81429695844558
H           -4.93706134845847       -2.23300024031640       -1.69637777729617
H           -4.24669860834238       -0.03764210176267       -2.52065787945671
H           -1.84757170308421        0.53521210260143       -2.67141015676527
H            5.90883535419721       -2.43770411512970       -1.10244300860728
