34
 energy: -7.006384711938 gnorm: 0.000786240826 xtb: 6.5.0 (97a52f5)
C            1.17102617626682        0.53354125081176        2.53233477227200
O            2.45657239834556        0.60602910354355        1.99536130867914
C            2.90412072358263       -0.64441340169851        1.66206091382165
O            2.25634595352638       -1.66197839085101        1.83354353397665
C            4.24475096577701       -0.72176793453030        1.05844101251370
N            5.03364064292016        0.31712660523580        0.85937689549450
C            6.14970943711970       -0.16505443796962        0.24582161278835
C            7.30104493178364        0.45643219986282       -0.24158192771460
N            8.22424852124646       -0.22588192352716       -0.85292644713122
C            8.01553487790534       -1.56567290694883       -1.00157546971778
N            9.00801282028502       -2.26407289911411       -1.67114019324469
N            6.97441078510611       -2.27110396617406       -0.57857053996296
C            6.05112857416214       -1.54708241402545        0.05452711157047
N            4.83491483159078       -1.90385650082201        0.59862873073201
C            4.22969474530039       -3.23421393385119        0.51316003561406
C            3.58665081760921       -3.46755919831989       -0.81416381533055
C            2.22625260750222       -3.70622016184306       -0.92303968633320
C            1.64909902351221       -3.91251145693784       -2.15832151912559
C            2.42460510277534       -3.87754911914149       -3.29835397673742
C            3.77713528793099       -3.62872958635192       -3.20242012635573
C            4.35035154521381       -3.42139718755676       -1.96724283377575
H            0.84151044943874        1.53851576749097        2.80594765749304
H            1.18856818913258       -0.10725702026975        3.41713292059801
H            0.49569957536106        0.11079320282281        1.78458553677451
H            7.43261330465893        1.51869663779593       -0.12200531550321
H            9.88889389904821       -1.83900081886143       -1.88115136103293
H            9.01766102371280       -3.26431364325635       -1.68903127023501
H            3.49937015020882       -3.33144518657975        1.32065828620872
H            5.00809028996520       -3.98060208907758        0.69139652350613
H            1.62002128478663       -3.71359946752252       -0.03334140296278
H            0.58980798137047       -4.09688915870068       -2.23262998988714
H            1.97279783661654       -4.03805902272558       -4.26362415043648
H            4.38432506691918       -3.58823552792799       -4.09219854216163
H            5.39793017935695       -3.19205741298462       -1.88454828438704
