24
 energy: -4.795751026689 gnorm: 0.000626178085 xtb: 6.5.0 (97a52f5)
C            1.01495519632666        0.71708418008536       -0.46694091804190
O            2.35796167140785        0.43719673906122       -0.71399059940391
C            3.14645251495030        0.96781907457626        0.26830048192799
O            2.70706569579491        1.59160249756738        1.21665013398414
C            4.59837776965291        0.75062238144484        0.14002599451345
N            5.48435891788506        1.08926672690959        1.07999010080074
O            6.70704317861619        0.75915321908154        0.66265677778506
C            6.60148282237131        0.18949583256272       -0.58450305728871
C            7.74388997850775       -0.30537517270899       -1.35543318986449
C            9.02232865868367       -0.19556235294763       -0.82172589327768
C           10.11746555112246       -0.65814352963916       -1.51598229523186
C            9.95300987999398       -1.23894474989890       -2.75672371243091
C            8.69038192281523       -1.35491620226390       -3.30057921814536
C            7.59582904512379       -0.89285996129159       -2.60655133547682
C            5.26800404240779        0.17676510739225       -0.93978111981634
Br           4.51982058714850       -0.45967353149554       -2.54740014279352
H            0.41149631667355        0.28997560620126       -1.27125905339504
H            0.87668740574621        1.80043980211040       -0.43064243719645
H            0.72928501644980        0.27525519558308        0.49077425953851
H            9.13923177639114        0.25719585958568        0.14838204133649
H           11.10329702814098       -0.56791021435265       -1.08957995641082
H           10.80982596168894       -1.60277381039357       -3.30002400858576
H            8.56045787308937       -1.80896346177625       -4.26952613618251
H            6.60698118901267       -0.98407923539302       -3.02821671634294
