24
 energy: -4.794477796072 gnorm: 0.000640205107 xtb: 6.5.0 (97a52f5)
C            1.01165959634023       -0.72832357649314       -0.01466572113064
O            2.34324241818381       -0.67239046597167        0.39133595760962
C            3.16994221908840       -0.55424815423739       -0.69012933236081
O            2.76288550536302       -0.50177127932901       -1.83573428076788
C            4.61902521183582       -0.48213249003805       -0.42597814282972
N            5.51853426611065       -0.24513049752363       -1.38106983416945
O            6.73436064806418       -0.22907549499487       -0.83949047340921
C            6.61480730837036       -0.46644750094571        0.50661376543950
C            7.77291651008860       -0.51871786921753        1.40508176901475
C            9.04015090633627       -0.31115699046567        0.87350615692236
C           10.15828606623282       -0.35127577937343        1.67572447608924
C           10.02972835591408       -0.60087420269116        3.02649329237987
C            8.77939216008523       -0.80844322827999        3.57112519154238
C            7.66206940628544       -0.76812452998791        2.76886070900084
C            5.27171983538133       -0.63388906005631        0.80344913251374
Cl           4.54455809677091       -0.97642692303836        2.35462147037645
H            0.37633908719382       -0.78965430151917        0.87229801127675
H            0.86749019580244       -1.61243348613071       -0.64079992971681
H            0.77530213181226        0.17373566992448       -0.58489949673328
H            9.12936680360462       -0.11638284568439       -0.18215941731543
H           11.13439973127955       -0.18742369536220        1.24850654335555
H           10.90461545141324       -0.63421341234485        3.65542133107107
H            8.67763598335696       -1.00265736788588        4.62675099486293
H            6.68936210508542       -0.93258251835586        3.19503782697846
