45
 energy: -8.103145251201 gnorm: 0.000730362651 xtb: 6.5.0 (97a52f5)
C            0.30356804710035        0.57376979757258        0.45804033441209
O            1.66456976364739        0.22181042069747        0.54784261241965
C            2.35376305881659        0.86151601536907        1.63735556220898
C            1.85732846087907        0.37035880391010        2.99030325065576
C            3.86598705015860        0.65922811719619        1.48260996559791
C            4.65349673387867        1.43818366467361        2.47609769316706
N            4.48195307914063        2.71038673017895        2.69040700156885
C            5.37077878837687        3.09517477304314        3.67296718033869
C            5.53208915940901        4.34120305566983        4.19658044976726
C            4.76785783399196        5.50099694124364        3.81882018187877
C            5.02473155112127        6.74225495896618        4.41113308316250
C            4.29162229591710        7.85266950117337        4.05583926093730
C            3.29241326539981        7.75776343597051        3.11138728361795
C            3.00404736499499        6.53632734144369        2.49651673458204
N            1.98172898727598        6.41880676245093        1.53068314223538
C            1.29149673282806        7.59324285730550        1.00040996233402
C            1.52446301334503        5.11226221702380        1.05693406529243
C            3.75430241097237        5.42759877668529        2.86713974415849
C            6.15626937137952        1.91997203146758        4.08215557709080
O            7.03345969626017        1.86968032012991        4.92664983941649
N            5.65772948840735        0.89763935116996        3.28374604796854
C            6.11582614732946       -0.48040405839804        3.34531556686752
H           -0.09647346716934        0.17837197340864       -0.47653840351575
H            0.19232583032740        1.65877852241375        0.46079999336729
H           -0.25304641962554        0.13971475883464        1.28874004681276
H            2.14854518503477        1.94028898870790        1.54176665164002
H            1.97678653351004       -0.70969987008415        3.06381990897174
H            0.80366409315524        0.59914436483871        3.14486987962310
H            2.41945195282909        0.82512716543486        3.80630058190334
H            4.17055554202714        0.94767909618400        0.47258507894960
H            4.09243301944904       -0.40548842292693        1.57480191095802
H            6.28513430339449        4.46549197934641        4.95317312137180
H            5.80329762219365        6.82114361562748        5.15017196734592
H            4.49782916518450        8.80181359397436        4.52268238850037
H            2.71730405976428        8.62883735078705        2.85335454934815
H            2.01375548217346        8.35606368118807        0.71618869724303
H            0.61792984866273        8.00021395301749        1.75218501843779
H            0.71151482754670        7.33598906871637        0.11647092177587
H            1.32657701891213        4.45817599810950        1.90409003148657
H            2.28272790046482        4.65910397443909        0.42115403210828
H            0.60458469035216        5.20508015506321        0.48315826899857
H            3.55085175362837        4.48520071037457        2.40079112144744
H            6.94854974508572       -0.55795058004246        4.04181584883950
H            6.44813936575478       -0.81005280112828        2.36295350866220
H            5.31096964671592       -1.12776909120123        3.68784033606115
