86
 energy: -16.181150027577 gnorm: 0.004124169386 xtb: 6.5.0 (97a52f5)
C            2.18241849106251       -2.33192349744630        1.42947472040840
O            2.44060090323625       -2.67255475514368        0.09913748557948
C            2.44351901108717       -1.52226393595446       -0.72964777047526
O            1.21282782123940       -0.82079107210868       -0.69424973491599
C            0.15158391289391       -1.66156308310386       -1.03910079654967
C            2.94277739300587       -1.84092543224751       -2.20384162922476
Cl           1.93808829627708       -2.95214194126749       -3.13029676294017
C            4.33820220338926       -2.35373130636907       -1.89136356862225
N            4.99166026034161       -3.32387027763813       -2.45831611516209
C            6.24663595437059       -3.42414612511071       -1.96799260694881
C            7.08321821747141       -4.44773408670703       -2.46370437967840
C            8.37271904315939       -4.57563298751744       -2.05333645942353
C            8.92567026372424       -3.68154670240394       -1.11489894152542
C           10.31841990853761       -3.77625223874094       -0.69639711723269
C           11.29142436216126       -4.55685688336368       -1.25388447201166
C           12.55570651898512       -4.43731144979111       -0.61554743810696
C           12.55660389103238       -3.56479169873149        0.41965792298058
S           10.99309024018123       -2.86376524998313        0.63296990571560
C            8.11711645228409       -2.69667647380962       -0.59553052394576
C            6.77561367914329       -2.53354962187293       -0.98521915374781
N            6.05125705629938       -1.54422490951310       -0.40744831816103
C            4.84234475012137       -1.49743003720235       -0.88315899232216
C            3.70193793574262       -0.56059729468108       -0.49396553590483
Cl           3.82380721637023        0.12566976320584        1.12265853163386
C            3.41939459830064        0.48649678998394       -1.62204191544549
C            4.38493959646668        1.61025528265406       -1.99447533599053
C            3.86521666999452        2.38992449783847       -3.25304546818081
C            2.86578251351493        1.61682650450212       -4.27061026739970
C            2.24145320434505        0.25513962706419       -3.82709316270717
C            3.19146708335415       -0.43636363467355       -2.85543260246392
C            3.72760128871972        1.52911794073597       -5.57100792896968
Cl           2.80435948069867        1.08841218721333       -7.00259192960642
C            4.95234297064431        0.66300704435808       -5.31402318529226
N            5.19474542304888       -0.55111757720990       -5.71186321860795
C            6.37870580434888       -1.00822005256539       -5.23359827399974
C            6.79167501947014       -2.30585941399142       -5.59043744642130
C            7.98110492300707       -2.84754897465356       -5.15513461527931
C            8.39281499370567       -4.19774572414592       -5.52453671242540
C            7.63769438488826       -5.14100550159742       -6.15951562915936
C            8.31666834004793       -6.37184484666542       -6.37311305101079
C            9.58533714018185       -6.37634077662911       -5.90794675661827
S            9.97637431912272       -4.85739750307452       -5.19011698082083
C            8.80281381946509       -2.06865462666947       -4.31746826597949
C            8.43842640072216       -0.81464700094484       -3.94236581023791
C            7.22842070546512       -0.23668911573018       -4.38435905861086
N            6.93091357131381        1.01988919252905       -3.98530625941971
C            5.80079742066671        1.42519784375238       -4.48448980902986
C            5.06093011014419        2.72151119397963       -4.20742949315693
Cl           6.09394397410989        4.03950839860881       -3.66368611192795
C            4.37733491537740        2.97811559014119       -5.61659503607418
O            5.37457341528942        3.19139618081757       -6.63086954359217
C            5.19871878829103        2.45619613798201       -7.81654848566515
O            3.40141285365707        4.01251506359084       -5.53088935926092
C            2.86220425414936        4.32762354824046       -6.77762575061404
H            1.89718037683158       -3.23297080798552        1.97567951429487
H            1.37299990763848       -1.60061208295277        1.47751457138238
H            3.08524121047047       -1.91314189797657        1.87689125898264
H            0.16634768980647       -1.84673369894466       -2.11399136854691
H           -0.78678287912233       -1.17260619747094       -0.77090252244272
H            0.23799996277389       -2.60837146663204       -0.50274982063371
H            6.67630826364413       -5.12150194502680       -3.19704521975416
H            8.98538852484746       -5.36194563058940       -2.45659770352109
H           11.12758866329914       -5.18670539110417       -2.11669066354508
H           13.42910208940406       -4.99259702875960       -0.92950651194493
H           13.40370293737111       -3.32679985019913        1.03589316288823
H            8.51973332627372       -2.01777924343383        0.13226472526991
H            2.45486502686556        0.95265616471296       -1.36832695827118
H            5.36853892668518        1.18039030924272       -2.19775951792918
H            4.53546844097401        2.28586172438838       -1.14521195143273
H            3.39935238179005        3.33130191396928       -2.93395997430707
H            2.03668204534312        2.30193102322722       -4.50319333680932
H            2.05984070034927       -0.38053786360679       -4.70015228213735
H            1.27032716703756        0.40368455835056       -3.34438067063661
H            4.15805556599255       -0.52612602935652       -3.37371001883733
H            6.14627600102538       -2.87702999330544       -6.22985386380678
H            6.61452508616884       -4.97938421056981       -6.46047696768163
H            7.85854011946278       -7.22098203688833       -6.86008506473671
H           10.27044599420204       -7.20114292245851       -5.96813694657908
H            9.72774746907400       -2.49129634953441       -3.96638279843240
H            9.07232122228592       -0.23227365351023       -3.29701391476792
H            4.20835860304599        2.62763552467232       -8.23655581650194
H            5.33150148908645        1.39280069154177       -7.61460208747040
H            5.95295590779890        2.77585452983149       -8.53702799994581
H            2.37053984956061        3.45148949002092       -7.20266564090463
H            3.65860790864372        4.68028102005968       -7.43510404980965
H            2.12664825747977        5.12349437219603       -6.64755034641523
