43
 energy: -8.579467519964 gnorm: 0.000838146132 xtb: 6.5.0 (97a52f5)
C            1.21777230985780       -0.23727403737333        0.15780572062192
O            2.51399992463519       -0.28775673363183       -0.39718260095551
C            3.14039824310274        0.95241398683166       -0.55175549419884
C            2.59781245600691        2.15628551002328       -0.16848091297282
C            3.26930777965152        3.38121991093596       -0.35535439704986
C            2.70376183859648        4.63622536169503        0.03914416599170
C            1.52468807832303        4.80315472633015        0.68947930795951
C            0.95647014695702        6.06343338854969        1.07459859947321
C            1.54200652168931        7.29668716842037        0.74454644410822
C            0.95721384438742        8.46452320992955        1.13562804127357
N           -0.20468878009298        8.45935355917690        1.85222248362206
C           -0.78612806078217        9.75655789851533        2.26721795053433
C           -2.18484961688481        9.66370148127179        2.78795638128525
C           -2.42906145928887        9.59098550617449        4.15085822321826
C           -3.72032058096304        9.45722276321698        4.62703502990800
C           -4.77668727587410        9.38836908023113        3.74614897172394
Br          -6.54005157878895        9.20358700533597        4.39800332947648
C           -4.54629208161112        9.45032148796811        2.38975041925842
C           -3.25558466665429        9.58436041147748        1.91175887046012
C           -0.79147202602130        7.27502891945115        2.19163688303542
C           -0.23724444635418        6.08900736838784        1.81349450361906
C            4.53832189147205        3.35646570058383       -0.95668988337297
C            5.11455170154068        2.18432876551687       -1.34557915277321
C            4.45532015249980        0.93936432079929       -1.16518143819720
O            4.98374793978903       -0.12727463254124       -1.52111954286674
H            0.81947628687948       -1.25200165243805        0.20113053613157
H            0.56558256341273        0.37087082315910       -0.47139492181795
H            1.26187158799919        0.16783771882298        1.17043464754328
H            1.62593958969280        2.16584889781427        0.28221351715575
H            3.28179118678982        5.50992966348357       -0.19851458372544
H            0.96157145160199        3.92974889968844        0.96060474662611
H            2.45378023497750        7.32454753965400        0.17625672206600
H            1.40064228455007        9.41289156115362        0.88852230952907
H           -0.75988473852357       10.43389338777509        1.40928468655179
H           -0.13155978247920       10.19327816515590        3.02616235847233
H           -1.60159522002133        9.63276135382916        4.83790078463238
H           -3.91407161090674        9.40274165231316        5.68589810012928
H           -5.38145112228362        9.38941108180751        1.71121567437064
H           -3.07156121970218        9.61967054171676        0.85183728202130
H           -1.69998793490390        7.29671813377437        2.76506635603775
H           -0.70883256843127        5.16018499074061        2.08429017006315
H            5.06141005152127        4.28541737341293       -1.10509124166328
H            6.08848670463260        2.17654774086115       -1.80056904730781
