42
 energy: -8.087106939336 gnorm: 0.000932662254 xtb: 6.5.0 (97a52f5)
C            0.93023999474439       -0.51865032058274        0.33446599625940
O            2.26201734567094       -0.14984214924202        0.05849126429355
C            3.17928418601289       -0.93326490896901        0.69259756195392
N            4.53686938386720       -0.79263480945888        0.61157156104544
C            5.20133549549213       -1.73195813379107        1.35838003291469
C            6.60206546655667       -1.80273699500453        1.47664960337341
C            7.26938489036314       -2.83285084030824        2.29169642841106
C            6.90107122646771       -4.17683195862593        2.20072538294292
C            7.53605070944705       -5.13695317791383        2.95386128019477
C            8.56051883795568       -4.79592388408606        3.82664934373357
C            9.25879625558976       -5.82972845701516        4.64008811298029
C            8.92885065241840       -3.46194849277901        3.92499659521857
C            8.29832586080735       -2.49735114585832        3.17428316552522
C            7.33079593558185       -0.83053799677897        0.76565153460136
C            8.74314205425646       -0.65461002267492        0.62927678804671
C            8.96274672938334        0.41360176902271       -0.18811876464582
C            7.69950928435313        0.94523449377907       -0.60425860294266
O            7.43500327109757        2.00350455431501       -1.42125809983797
C            8.59775588393647        2.63472207313569       -1.90642114118672
N            6.76195758571698        0.15237081832312       -0.00295921650294
B            5.24598263144687        0.31181699083081       -0.18483052693377
F            4.93604483029822        0.16823223050300       -1.52612903127631
F            4.86114632181738        1.54388976948944        0.31480349277985
C            4.18159694231115       -2.52468327297237        1.97156621003983
C            2.97041554185100       -2.04807153867953        1.56770794899963
H            0.26436145215483        0.16072455020987       -0.20029222740555
H            0.73869414958199       -0.43764480874793        1.40587836232181
H            0.75074656640501       -1.53947186326236       -0.00769197439101
H            6.12649984751727       -4.45948023129721        1.50926569403346
H            7.24260737644412       -6.16896499065911        2.86613565850827
H            8.85251639872276       -6.82419009733249        4.45428195483193
H            9.15438198664307       -5.62024969651541        5.70503382194925
H           10.32284467794124       -5.85459386453834        4.40286331755117
H            9.71956008981391       -3.18686062355847        4.60195582261644
H            8.58074024721432       -1.46408737628856        3.27733428422868
H            9.50022450501509       -1.27616283390054        1.07573803135269
H            9.92850774121823        0.78795123567090       -0.48051706995869
H            8.29908078509931        3.46264569415257       -2.55159630628905
H            9.18953225132547        1.92425562900819       -2.48636352230579
H            9.18296331683288        3.02410810620939       -1.07135392258319
H            4.34486470980799       -3.34191561492965        2.65293905850409
H            2.01386658082002       -2.44136780887875        1.86544209704748
