43
 energy: -8.707051205120 gnorm: 0.000580815712 xtb: 6.5.0 (97a52f5)
C            0.65920334604840        0.47753609589328       -0.28551357102418
O            2.02324696344110        0.18390508132055       -0.11699771711947
C            2.87461661185821        1.10845830971850       -0.65791749001661
N            4.22630212628208        1.00121759365121       -0.58693659380713
C            4.87470629074183        2.05253378507783       -1.19216528261198
C            6.27297492594364        2.17949728192688       -1.27385783399241
C            6.91720232593431        3.33466157919118       -1.92251361289834
C            7.96188462286948        3.15864095697672       -2.83366538257956
C            8.56245913164594        4.23953727054665       -3.43560602315155
C            8.13712627709802        5.52010083943211       -3.14563616554702
C            7.10632538730603        5.71658660265286       -2.24918390950829
C            6.50251199912952        4.63960617210701       -1.64348159301757
C            7.01766812034057        1.13718015058109       -0.69357197953130
C            8.42333750879952        0.97309610328501       -0.56414812555335
C            8.67083178105844       -0.19860472012709        0.10086475902377
S           10.29079128186200       -0.78955581331118        0.47241124601036
C           11.23800577600681        0.43083263017040       -0.25783136056097
N           11.82417323643278        1.28579621071815       -0.77067779641835
C            7.39885950354966       -0.81053170444585        0.41938917210139
O            7.08201509780019       -1.97270663346148        1.06849626752810
C            8.19009580628424       -2.71378049189188        1.51397245514800
N            6.46349839078936        0.03975926968728       -0.07666597819008
B            4.95428688973585       -0.17788452283330        0.06489787429325
F            4.63013488266985       -0.21971286707726        1.40827047893107
F            4.60419337971840       -1.34206049873333       -0.59365660833799
C            3.84461930073641        2.88757102486092       -1.70308644935457
C            2.63176844398633        2.33481847105308       -1.38669569847881
S            1.08298907714753        3.05180095494583       -1.83280885564574
C            1.61744362028013        4.43164311245012       -2.68735423715709
N            2.03588816151392        5.34846401919618       -3.25446725227473
H            0.07915019390523       -0.31836540160227        0.18612435459843
H            0.42426126969799        0.51656302339730       -1.35107006358346
H            0.42960292838868        1.42990093473137        0.19677600653281
H            8.27699005649621        2.15969642606105       -3.08184804900405
H            9.36601889308198        4.08611740628272       -4.13818762711689
H            8.60956870522254        6.36594438618561       -3.61884748574059
H            6.77594597034664        6.71733587296344       -2.02060229918996
H            5.71758231153917        4.79633569680180       -0.92373002567960
H            9.17407006627647        1.66169009281437       -0.90970673900245
H            7.82015275164910       -3.61050380057782        2.01539387566987
H            8.76863748395347       -2.11464344489873        2.22002734912651
H            8.80323025170502       -3.00240983577841        0.65783105923081
H            3.98667885072443        3.79150238005603       -2.26872309210183
