28
 energy: -5.726182385703 gnorm: 0.000919027622 xtb: 6.5.0 (97a52f5)
C            1.05929825230040        0.07714970799245       -0.32271020782289
C            2.21903350325508       -0.12133150852653        0.26468548338811
B            2.97474457259005       -1.47645787788138        0.42720676362278
C            2.54739250860504       -2.73383801253211       -0.27028040495646
C            3.27320148923089       -3.84861504306651       -0.05516053859650
C            4.41059660910963       -3.87592784212423        0.78859021988767
C            5.13088008295410       -5.09047749274754        0.97425416090186
C            6.22059482535898       -5.14818107174785        1.77162771047932
C            6.69152465593539       -3.99059534833451        2.45641673656230
C            7.82727726334442       -4.04801830494726        3.28392182665795
C            8.27471362358763       -2.93267592515770        3.93426762112580
C            7.60589047023526       -1.72105897309116        3.78255893364799
C            6.49752707901135       -1.63713099203675        2.98455490169561
C            6.00778304862354       -2.76340139554528        2.30076539355475
C            4.84119201441784       -2.71071017329173        1.45032427185715
N            4.13678872566241       -1.56136906660392        1.26670486451163
H            0.61713921807146        1.05251868479487       -0.38316138832521
H            0.51340872249365       -0.73403178176281       -0.76049971435941
H            2.77433924305831        0.68217144724907        0.71041790992663
H            1.68961506011101       -2.71284649254235       -0.91330115569332
H            2.98491799845119       -4.76477682422572       -0.54271619458498
H            4.79005875986631       -5.97494445712193        0.46376492796833
H            6.75055005223370       -6.07634881457423        1.89941978034280
H            8.34309928608788       -4.98591237074284        3.39903142482360
H            9.14670896798808       -2.98846815322771        4.56539478450945
H            7.96577507652463       -0.84505143722096        4.29743170822183
H            5.99887636233445       -0.69081239484618        2.88183683556318
H            4.42930252855739       -0.71823808613730        1.74083334509002
