39
 energy: -7.632723206676 gnorm: 0.000720494943 xtb: 6.5.0 (97a52f5)
C            0.76994312128951        0.46181062315465        0.36081039612595
O            2.10723818268712        0.14325301913680        0.05270830845007
C            3.01192062241947        0.86934139483914        0.76775110063518
N            4.37103187643757        0.76001291940368        0.67077527459771
C            5.02279467933307        1.61574474218424        1.52150171603007
C            6.42308561667831        1.72337329829204        1.61644126350612
C            7.07351115162782        2.65072314711336        2.55867109896673
C            8.12292719566694        3.47724976949082        2.14787956976422
C            8.72906556035981        4.34052766621331        3.03068717140862
C            8.30546586050864        4.40096588763441        4.34312696980346
C            7.27074377237688        3.59332204911379        4.77039479652598
C            6.66091749516127        2.72860636246542        3.89163730242457
C            7.16487582474335        0.88500258811485        0.76268263113674
C            8.57842573768375        0.70707671064534        0.64225547145229
C            8.80930250062178       -0.24484115730829       -0.30553388677361
C            7.55219513914172       -0.70962657044382       -0.81039336655605
O            7.29485815904181       -1.65563247835479       -1.75698164241767
C            8.45996489012367       -2.24838409346694       -2.28271738128414
N            6.60705620345869        0.00344756075735       -0.12732900096059
B            5.09376595668008       -0.18344274627140       -0.29967077206766
F            4.76299281788240       -1.49016870524985        0.01339716797697
F            4.74425290895338        0.15060059676815       -1.59625218911121
C            3.99248973976086        2.33642755909046        2.20226114009730
C            2.78780062988055        1.88458997585133        1.75305612655328
H            0.11625615893825       -0.16186091663099       -0.25137214487945
H            0.57893270901011        1.51224038299833        0.13397242509877
H            0.57540794245217        0.25817311400268        1.41537233400767
H            8.43826632463168        3.44804689622832        1.11937499348372
H            9.53458568001520        4.97381348535669        2.69639810349578
H            8.78218673468761        5.07762593389473        5.03329975128702
H            6.94231513059976        3.63818410750552        5.79596972012633
H            5.87139060366036        2.08143164000126        4.23207157800693
H            9.32824738537405        1.21975718425781        1.22001509241040
H            9.77845099246939       -0.59670926812023       -0.61422710004925
H            8.16420479877798       -2.99843341497656       -3.01838592914306
H            9.02108400654247       -2.73350514442224       -1.48203786326911
H            9.07287599034741       -1.48853084669535       -2.77105841016708
H            4.14491241001161        3.11815761349224        2.92656334437097
H            1.82618748996367        2.24061911393368        2.07998483893580
