89
 energy: -16.054692355717 gnorm: 0.000594518890 xtb: 6.5.0 (97a52f5)
C            3.35543992225532        3.07122955422203       -3.06171748113606
O            4.03635700593136        3.85860181237552       -4.01409990404707
C            3.14625295492953        4.54272198621172       -4.89157986693144
C            3.88427876433670        5.34154657191079       -5.96239065813586
C            4.67002702768252        4.47207287681532       -6.89058712501645
C            5.42331400917381        3.40171960761489       -6.52391571371762
C            6.01160954519515        2.89213334708305       -7.71472865844442
N            5.64203587344797        3.63008213607409       -8.76796008373549
C            4.83009604565103        4.60575024689951       -8.32210504192654
C            4.22834558050717        5.62249622098252       -9.11282648432892
C            4.25225084740453        5.84189284367849      -10.47041772932480
C            4.86663958463361        5.11550132756811      -11.52245605070602
N            5.64482228116446        3.99268942643124      -11.42886723189294
C            6.10765706377756        3.59394451771678      -12.64835392033527
C            6.99515755863592        2.47364902331636      -12.78203661413636
N            7.35405256823307        1.74675701480718      -11.71585146757237
C            8.19962136798733        0.78398604199733      -12.12953976040012
C            8.82480137856589       -0.21766611426120      -11.33375721674819
C            8.79534206167853       -0.45927709367720       -9.97949035400375
C            8.14332667419645        0.24323782364818       -8.93647007307978
N            7.36028188900270        1.35912559157609       -9.06299357515530
C            6.87488402679389        1.76185224321174       -7.85579464233949
C            7.37731718062677        0.86141759587608       -6.88942818903447
C            8.16253791660599       -0.06608673354869       -7.53957370789966
C            8.84612769830696       -1.22898456010813       -6.89777736464434
C            8.03283843944673       -2.51301427504578       -6.98823274277791
O            8.69899048746228       -3.61962563302702       -6.38421957051386
C            7.93634881949096       -4.80461892888585       -6.44353345162368
C            8.39415189516456        0.90776276650689      -13.55293314963114
C            9.26616049632382        0.04139902626633      -14.40830982892349
C            9.32190254191814        0.46216634839708      -15.87197734769045
O           10.16495653326537       -0.38802298116201      -16.64688231745148
C           10.22170666745183        0.00057556914507      -18.00145351494977
C            7.63852742698313        1.96695608209697      -13.94916667272197
C            5.56867898990488        4.50599972941340      -13.60294212364358
C            5.81624257529856        4.54441450572028      -15.07097359962233
N            6.82175159563723        5.56096691084864      -15.45346901789263
C            8.13932677619371        5.43818240185793      -14.78966185733567
C            6.93733702478947        5.65251044085233      -16.91470781100276
C            4.81367351340875        5.43793441301877      -12.91185360011934
C            4.14952207210894        6.63791449207717      -13.50609487332145
C            5.05972514603685        7.85752816792573      -13.52661611160474
O            4.41323300304876        9.00844301736026      -14.06521498402304
C            5.25141914217314       10.14277416513309      -14.06968025576524
H            4.08862749435018        2.57916037105881       -2.42150228546664
H            2.75561399741552        2.31252032252767       -3.56628111836122
H            2.71164411226958        3.70292271851282       -2.44819889567920
H            2.50958406256631        5.19329110339671       -4.27968821602970
H            2.49453556881628        3.79627469701761       -5.35985607569493
H            4.56741173158964        6.04719685102740       -5.47859771953889
H            3.17320190079448        5.94714137734580       -6.53348735345564
H            5.53603091587869        3.01292785645801       -5.52714102292887
H            3.66194434134852        6.33957467140585       -8.54188321492957
H            3.71063039514728        6.71170657137564      -10.80553666909263
H            5.86913589431081        3.56757919021636      -10.53560881365330
H            9.42807129488470       -0.90294471512277      -11.90769555376088
H            9.36204465071225       -1.31248014338788       -9.64326230085038
H            7.15908901597059        1.77664439822792       -9.96482015499173
H            7.17375678140057        0.89033520345318       -5.83322222199970
H            9.04959323836794       -1.00077137464685       -5.84637311801958
H            9.82821848923925       -1.38207288154907       -7.35622685503875
H            7.82889732668106       -2.76605956667291       -8.03484293176332
H            7.06192927448661       -2.38564245708206       -6.49584137813694
H            8.49965509677875       -5.61116973323442       -5.97255556615333
H            7.73712375062008       -5.06722067917751       -7.48341649401950
H            6.99434450468954       -4.66847502913464       -5.91051074579004
H            8.91815465458634       -0.99495182025650      -14.34764523986612
H           10.28248826522846        0.03634516650895      -14.00096122241414
H            9.69654295631578        1.48811528417348      -15.96269845129297
H            8.31999112193736        0.44285219729510      -16.31578880883478
H           10.86444264700629       -0.69558940170513      -18.54176873615938
H           10.63583753783703        1.00657079340772      -18.08209259698463
H            9.22257574521960       -0.02311254311479      -18.43875511410837
H            7.57632276124158        2.34966714804015      -14.95054496195449
H            4.88202285254882        4.77091808277530      -15.59100766509455
H            6.12841773223463        3.56692574112218      -15.43811131989678
H            8.01280749668249        5.41672142100685      -13.70939418022199
H            8.76740213448013        6.28878488246600      -15.04583960909259
H            8.64011026950485        4.52492112484797      -15.10306578698606
H            5.96442768763622        5.85672508787567      -17.35772295154813
H            7.32300001165573        4.72098762975818      -17.32507623299825
H            7.61289361435009        6.46146382567096      -17.18612113562918
H            3.23414023079306        6.87102166821617      -12.95352583549320
H            3.81688181286370        6.41616164420667      -14.52463359030788
H            5.95529087790028        7.65539282049870      -14.12536231813140
H            5.40032554421517        8.09778958403667      -12.51301362559667
H            4.70384146658199       10.98493792089110      -14.49468320787426
H            6.13674173638288        9.94890016558259      -14.67688468022454
H            5.55029703164941       10.38855329773402      -13.04969227860135
