83
 energy: -16.015201458676 gnorm: 0.000903581370 xtb: 6.5.0 (97a52f5)
C            3.44125781030008       -1.72217699763069        4.92890839078244
O            4.58356548075869       -2.41562685811176        4.48061783867443
C            5.61212593885116       -2.47513792319771        5.46301844802793
C            6.81192081892533       -3.28290953120492        4.98093333619006
C            6.45884151852886       -4.71133095829142        4.71961469624464
C            5.50387875145401       -5.13074357448060        3.84930501891531
C            5.49115723344346       -6.55017622086211        3.91478326355945
N            6.39846628791633       -6.98680137328057        4.78753032594139
C            7.01598231298308       -5.90665293861341        5.31041947525732
C            8.04166457732291       -5.92031104336834        6.28479783867557
C            8.64427266508429       -6.97062350082097        6.94735452345710
C            8.44362575970857       -8.35924492374529        6.86771350378361
N            7.58302977802484       -9.06764268012280        6.07586132450209
C            7.66566223826413      -10.41856154638074        6.25044982912070
C            6.89731543739611      -11.29818211705606        5.43104307615901
N            5.92139144679431      -10.84340789932993        4.62080439475517
C            5.41205995857503      -11.88570648811565        3.95113642813952
C            4.34772757864126      -11.87834736577654        2.99129492748996
C            3.66283459689351      -10.85398365491846        2.39856712642323
C            3.83623726329486       -9.44655055471006        2.52237330798989
N            4.73530642220518       -8.80625699069841        3.32990723524349
C            4.65212610140783       -7.45518500757778        3.18199820197497
C            3.65051690453482       -7.20639454640971        2.22854492018243
C            3.13693287327898       -8.42609018888331        1.82256759338128
C            2.08863797680150       -8.62917843718433        0.77764767736944
C            2.66986114064956       -9.02495093652560       -0.57296270352397
O            1.65553329832656       -9.24954875145844       -1.54771008183305
C            2.17672831610668       -9.67036812827520       -2.78789502502057
C            6.10774914843850      -13.08359071272807        4.34239768522197
C            5.85629489897172      -14.47964329494751        3.87062688325724
C            4.67023297730788      -15.13732479922973        4.56312968422054
O            4.45627899970489      -16.46968510176250        4.10697122375891
C            3.36806941239209      -17.09573169168282        4.74777667660190
C            7.03221364562012      -12.70273912489124        5.25943014550247
C            8.65271675616461      -10.63293627851048        7.30071175382064
C            9.12530564998209      -11.76381463186043        8.00737950048219
C            8.57915446668752      -13.12959036877866        7.75796954904292
O            9.13355233892647      -13.88405492446169        6.97918308187611
O            7.46919277999896      -13.46004759001771        8.49651410550700
C            7.06290937168025      -14.76705954994250        8.21887195425380
C           10.08816265320572      -11.57547099519135        9.01116693890559
C           10.63372738991650      -12.68422499029736        9.85451540242895
O           11.79794344133891      -12.61866827136946       10.20877405738024
O            9.79790565111918      -13.68941776214236       10.23865069853936
C           10.57591394737583      -10.29555168432235        9.28742181336318
C           10.11322499315635       -9.18809846521222        8.63183422576147
C            9.13938806240248       -9.35127496409480        7.64989197344479
H            2.70701621266231       -1.70339002502421        4.12256571903205
H            3.71036860805846       -0.69925143071013        5.19574860916218
H            3.01405533091255       -2.23342123927765        5.79264790684456
H            5.18788729180170       -2.92880679909756        6.36618817284791
H            5.89709455801845       -1.44550719358778        5.71169736925208
H            7.63114356331922       -3.21899184273689        5.70348972941282
H            7.19149372738058       -2.84121831426446        4.05370488138275
H            4.86803597681685       -4.50148430092038        3.25069539638216
H            8.40328879383753       -4.94224617682643        6.55507564587133
H            9.40357178969768       -6.68621688683249        7.65801718082475
H            6.97318348993186       -8.58776669862030        5.42088227705568
H            4.04946320734822      -12.86662090228793        2.68006263510525
H            2.88697217024123      -11.14064928503405        1.70761330173214
H            5.35553280834765       -9.31340351793682        3.95330514479499
H            3.34194756605255       -6.23884840255903        1.87275827063625
H            1.49736102523260       -7.71481482685896        0.66446157173489
H            1.37900165753345       -9.39365838691245        1.10945652041548
H            3.26524984622466       -9.94056038904209       -0.48274168124843
H            3.33855009474879       -8.24221377124110       -0.94951644537585
H            1.34841106094909       -9.80945106082919       -3.48390693076173
H            2.70643981079201      -10.61632866941211       -2.66541963505805
H            2.85448166155426       -8.91135854158925       -3.18142701268300
H            6.75155504285870      -15.08806922764433        4.03514941344002
H            5.69983902141243      -14.48449783376088        2.78737547721651
H            3.75214326015203      -14.56549590652556        4.38847109974436
H            4.82615311597873      -15.16867401618662        5.64695603285315
H            3.26481469223087      -18.10600431788860        4.34967636300476
H            2.45219897553791      -16.53601740693416        4.55274868232944
H            3.55126753945331      -17.14936031400245        5.82188867903527
H            7.76079577388030      -13.33607813069317        5.72446807575535
H            6.24842328391136      -15.03813568830890        8.89382652741528
H            7.90404393730317      -15.44905634199448        8.36256649640411
H            6.71725390107542      -14.83082489629656        7.18627602741824
H            8.92949749169005      -13.59955786852190        9.78731225985549
H           11.32564253390617      -10.19331125483143       10.05402323706692
H           10.48303410823002       -8.20796179630653        8.87373075589072
