80
 energy: -14.804544428431 gnorm: 0.000767106217 xtb: 6.5.0 (97a52f5)
C            0.92807413912827        1.90571060672897        0.74203429887402
O            2.23585983250911        2.33779361075141        1.04480813398886
C            2.77846922313532        3.18450057930570        0.03412227274011
C            4.18902566899181        3.65050287254747        0.36815513525248
C            4.76845765322696        4.54391526397487       -0.68063350725103
C            5.65998194527705        4.18646567910201       -1.64769337164033
C            5.88601774418385        5.34311115644774       -2.43692628545073
N            5.16011737949064        6.37322941798827       -1.96914870338793
C            4.46176626308675        5.92482260422689       -0.91134108204380
C            3.60079252315284        6.71046904898184       -0.07435675424095
C            3.26137711281505        8.01608235677365       -0.25229479678885
C            3.54250556358745        8.79831571490581       -1.42504131673602
N            3.57572998587098        8.30615169745223       -2.70976901096034
C            4.04130558367036        9.27436028596797       -3.56183414337772
C            4.23270126197116       10.44170559142684       -2.81020046195665
C            3.89893064138175       10.16545792840375       -1.49347250945650
C            3.95777660033521       11.12927451659812       -0.35366146797733
C            2.67009898528152       11.92364529191287       -0.18466723003919
O            2.74420360575864       12.84751899471530        0.89890238714293
C            1.56619510336605       13.60991638609991        1.04055177593516
C            4.53627671949390        8.95737326273696       -4.89648008641292
N            5.77500871117102        9.27220621566601       -5.31555442028511
C            6.04868634501996        8.45843271279919       -6.35378874255725
C            7.41231135884500        8.22463382524319       -6.87315700064618
N            7.94550519647401        9.08925439013008       -7.75279178400684
C            8.12684745129603        7.06982369442885       -6.47606374455348
C            7.77667984555055        6.24252036953317       -5.41588836238342
N            6.82875674822021        6.48725271715245       -4.42054413128135
C            6.76700666496339        5.43170258798907       -3.56831187001005
C            7.70625015123074        4.46458751282097       -4.01514983769207
C            8.34240177402250        4.95420323986475       -5.12258913912161
C            9.34191098285581        4.22693997135221       -5.95960164392190
C            8.72158107544369        3.61716739172361       -7.20978175632673
O            9.68920131101993        2.98730578167031       -8.04495868416818
C            9.11725121163713        2.44492475146476       -9.21431549938241
C            4.93018233165308        7.61009621416376       -6.63070691879407
C            4.87878429293544        6.48127144453293       -7.60745581734697
C            4.85475910182393        5.11783409146819       -6.92869940028550
O            4.90039653185920        4.04135216194833       -7.86135335436355
C            4.77381737181238        2.78438355650913       -7.23419947524674
C            3.98239480924294        7.93396292236344       -5.70471618066751
H            0.57371032925308        1.26317174919373        1.54902602283391
H            0.92944801827835        1.34025813515206       -0.19083939054588
H            0.26380854224816        2.76630859835981        0.65163965407615
H            2.10868456900135        4.04303221952709       -0.08939108555499
H            2.77157710043914        2.63480824038674       -0.91408098717537
H            4.83579650017685        2.77778800785364        0.50530595988771
H            4.18795090590463        4.16414034735438        1.33465907029473
H            6.09755505699208        3.21325064525713       -1.78938956606129
H            3.25546287493186        6.22596787276244        0.82299113971699
H            2.75350000611630        8.52391361689205        0.55231997063761
H            3.49589584094956        7.31113969954891       -2.94071824701212
H            4.62419744229886       11.37301332951766       -3.18162017183275
H            4.79462826324121       11.81995126511317       -0.50059607039619
H            4.18240285236052       10.59335936511397        0.57412387773438
H            1.82414392814689       11.25059646154217       -0.00445408936848
H            2.44444935120985       12.48469540973096       -1.09874768266267
H            1.68655125313627       14.28982452976464        1.88490736841211
H            0.71704874496596       12.95157018063031        1.22897086752009
H            1.38871166058389       14.19213853748240        0.13528536146337
H            7.47920703452799        9.92543951591751       -8.05672287933147
H            8.86722680767279        9.00443656250046       -8.14481888221261
H            9.00136204428386        6.81423699562326       -7.04490922122468
H            6.21408657736522        7.30127120822086       -4.36192284538582
H            7.88468463937479        3.50566492130566       -3.56106490044920
H            9.82127057203417        3.44103557849875       -5.36700740096055
H           10.14874182357834        4.90864139065409       -6.24660449491408
H            8.21204156807192        4.38796416110685       -7.79935111518477
H            7.96545811228379        2.87196905904111       -6.93892386850010
H            9.90716724266905        1.99414869693232       -9.81635130679850
H            8.63151268147058        3.23247857079330       -9.79171370199349
H            8.38787561481807        1.67884017396135       -8.94902372166240
H            5.74253357941018        6.53646666200705       -8.27746076062649
H            3.99910295834061        6.58841663056769       -8.25007051571704
H            3.95166559676054        5.00862927339656       -6.31754952428524
H            5.70944136410498        5.01123841619746       -6.25256938369453
H            4.89040645184166        2.00223902020087       -7.98536546211748
H            3.78721652225838        2.69742353092699       -6.77691790177258
H            5.54369453837997        2.66670954858673       -6.47059038649571
H            3.03898422770719        7.43732345252458       -5.55348924183583
