91
 energy: -16.923263729798 gnorm: 0.000847748331 xtb: 6.5.0 (97a52f5)
C            1.46819322174690        2.45933262994981       -2.40837070346044
O            1.96464188436301        2.30575418669564       -3.71894530416024
C            2.17260096465484        0.93967540440286       -4.06930007617772
C            2.70125836063174        0.78664518369375       -5.48972102623996
C            2.94719425679753       -0.62883509857476       -5.90571573161217
C            2.67088331245255       -1.77886058891620       -5.22211933390925
C            3.13902673138780       -2.85394573826140       -6.03076707188392
N            3.63085477125498       -2.38647350017958       -7.18439132942861
C            3.54609891804057       -1.04599058457788       -7.14142796977135
C            4.16420047360450       -0.23935353016898       -8.15679408721451
C            5.48424221424276        0.11157829623795       -7.96129194544643
C            6.53553978928430       -0.84249228614155       -8.15531957032674
N            6.31124078409254       -2.20103193960611       -8.14491447667825
C            7.49508316824908       -2.87819429245145       -8.16759796115351
C            8.51898752451873       -1.91685487493709       -8.25793359271161
C            7.93873838413897       -0.65933585951729       -8.22995636308051
C            8.65870026709308        0.64746237303535       -8.29644027364974
C            8.67382140855974        1.24437384895927       -9.69668022732675
O            9.36551757183626        2.48975716911055       -9.74240923283625
C            9.39519713274183        3.04689980745671      -11.03745344275603
C            7.58450436073628       -4.30126486848265       -7.95144171616710
N            6.51156639974028       -5.06882965944901       -7.71780417965549
C            6.95393051887631       -6.30108301851010       -7.40819531400167
C            6.13249268162217       -7.44795757234084       -7.01609693606477
N            6.57436949165937       -8.74746024255757       -7.37390482499219
C            6.50004741092041       -9.81120221304129       -6.42475536478528
O            6.15078684161544       -9.63156188395525       -5.28091448255257
C            6.89035165301641      -11.19746078207842       -6.84765551262853
C            8.01253050787155      -11.16653862753049       -7.88537605137040
C            7.58063357669135      -10.32925910825502       -9.09119391473244
C            7.04387826180893       -8.97634538587012       -8.70237449640773
O            7.02421804140425       -8.10663978864042       -9.54196162836178
C            4.98734109651474       -7.37907788723830       -6.20376555954815
C            4.21212152711932       -6.30162519348927       -5.74685939136963
N            4.20241829964590       -5.03780683578551       -6.29865788313370
C            3.29333629894002       -4.23997700003774       -5.68203489360562
C            2.67831108006764       -5.01625751193915       -4.67313258993983
C            3.20979376333769       -6.28358745387142       -4.70731032417419
C            2.80798563113240       -7.33429422635842       -3.71060342316338
C            3.48556434228126       -8.69312981117520       -3.82231656647568
O            3.10724914355034       -9.57159056954094       -2.76660663315007
C            3.76025149790438      -10.81814291018049       -2.85416975474270
C            8.39047741527082       -6.31538491995137       -7.46006209480372
C            9.30649470366450       -7.44298411469021       -7.11083990066718
C            9.14765676203672       -7.92019595468893       -5.67435281645919
O            9.93881285871462       -9.07295020821382       -5.39704629799791
C            9.63794054607035       -9.63629672759518       -4.14035535208265
C            8.77345658662985       -5.05278739060623       -7.80139765007476
H            1.32822725702293        3.52263323162413       -2.20939504148952
H            2.18140863329756        2.05065391308898       -1.69118692231933
H            0.50987116498150        1.94714848466167       -2.31183437954965
H            1.21978355002068        0.41063785354146       -3.95391226688319
H            2.87541913740123        0.50669525470321       -3.34832558642506
H            3.63003353573653        1.35767401174733       -5.58830671313562
H            1.99704208876627        1.25075024602997       -6.18768332073233
H            2.24549221507919       -1.86093394824962       -4.23705650560743
H            3.92125690973489       -0.61960192547941       -9.15055652918572
H            5.72766760395786        1.05100787049465       -7.49118378777463
H            5.41820437458627       -2.60228793300045       -7.85686047401167
H            9.57520507829082       -2.12132091632611       -8.28582556620513
H            9.68767780726591        0.51911648584152       -7.94527216539976
H            8.20007272636902        1.35799881423383       -7.60159281267620
H            7.65132621302005        1.40707559660010      -10.05612561284141
H            9.15738481316391        0.55777332750246      -10.40099856122792
H            9.93401594056714        3.99447260042696      -10.99843185289638
H            8.37790500599414        3.22671836002954      -11.38765450573022
H            9.90917307550191        2.36980595115960      -11.72111046181844
H            6.00849552599429      -11.70210680070918       -7.25436864700682
H            7.18900643466288      -11.76665401825198       -5.96035586668372
H            8.29339579331812      -12.18361765551952       -8.19152311939413
H            8.91296122180416      -10.73051733376268       -7.43587578119496
H            6.80116555399128      -10.85899151927590       -9.64816148666653
H            8.40909522014324      -10.18857873718750       -9.79415008209698
H            4.64158749103967       -8.34568890018521       -5.89596728387813
H            4.90883311475304       -4.72599330565899       -6.95903550696126
H            1.92609453431809       -4.66764429450591       -3.98711990568574
H            1.72353924243267       -7.47626986299436       -3.76464303616932
H            2.99302735321684       -6.94273638495371       -2.70455993691346
H            4.57631813809591       -8.58709817739675       -3.78480352047649
H            3.22006534716061       -9.18410994923226       -4.76515072959162
H            3.44851077633306      -11.43894199240462       -2.01319518891840
H            4.84101968266379      -10.67305812115290       -2.81532317082108
H            3.48903766575866      -11.31330345294422       -3.78765850923356
H           10.34567531631036       -7.14506992582409       -7.28343870780563
H            9.12939901742192       -8.27776569247221       -7.79334923721023
H            8.10161184312557       -8.17361004922274       -5.47003470161991
H            9.42776667107879       -7.13074747041230       -4.96740941482007
H           10.28368701121835      -10.50035648451966       -3.97849878084609
H            8.59504627754461       -9.95724468022810       -4.12151520684167
H            9.81349216483607       -8.90151376991556       -3.35327290522646
H            9.78222903334816       -4.68816744012164       -7.89095093518002
