94
 energy: -17.282542035992 gnorm: 0.000729039068 xtb: 6.5.0 (97a52f5)
C            4.54029213170293        1.75198227469956       -3.57149805658792
O            3.80598690225755        0.89987027136901       -4.42108894265907
C            4.22373306108492       -0.45917365302215       -4.32728744078333
C            3.43767918314788       -1.36843059811253       -5.26178254763706
C            3.87684216862386       -2.79426657847388       -5.18417852046089
C            3.25375093061434       -3.80362637418585       -4.50853717490405
C            4.07771308634909       -4.95078132121733       -4.65738292997402
N            5.14782179013091       -4.65692676899698       -5.40560629945493
C            5.08360843487133       -3.35743654448459       -5.72320616036279
C            6.05491421653994       -2.65591560461565       -6.50993681110108
C            7.41092867835575       -2.72179798875504       -6.37147758905449
C            8.20904500248229       -3.84026712520708       -5.98174774230026
N            7.76008269663495       -5.09970696616659       -5.66894273510625
C            8.78992266782917       -5.90250219720383       -5.27623868756903
C            9.96436241300790       -5.14200154789908       -5.38220048973093
C            9.61738191426188       -3.87297209516856       -5.81956676416884
C           10.57009139615841       -2.75599604026104       -6.09782575675148
C           10.91187965875326       -2.62521461915493       -7.57554680856052
O           11.81351979675490       -1.55022888392177       -7.82489756921719
C           12.13544035539485       -1.41788537523479       -9.19088428902147
C            8.58542538809015       -7.22506030718604       -4.73128475234618
N            7.41588998199423       -7.87072185957782       -4.82295008500451
C            7.50823149120182       -8.98250045584928       -4.07169398792933
C            6.43189903351078       -9.95509419879486       -3.84920243934572
N            6.71059538136515      -11.30449887263872       -3.89755662188294
C            7.79648200211141      -11.97688484052030       -4.47945257099853
O            8.68443474792078      -11.42487762004624       -5.08582163507451
C            7.82416678010403      -13.47191611466920       -4.35104613593559
C            7.52558706513013      -14.15634937659463       -5.67845764815641
C            7.57871847004734      -15.67579205190007       -5.59676920445894
C            7.26672756554667      -16.31608628983638       -6.92344316269906
O            6.10247414377668      -16.48802455173449       -7.22013700867708
O            8.31899272139396      -16.64080142619456       -7.72347711149801
C            5.10102936876671       -9.61454112666667       -3.52286536916802
C            4.43469659260999       -8.38847487095427       -3.57463619696501
N            4.87234971055836       -7.20988735912469       -4.14840490497492
C            3.90561273269235       -6.25784528181126       -4.09458777018340
C            2.79086799813000       -6.82633051465858       -3.43032103781224
C            3.09321210691622       -8.12978058349873       -3.12698816797817
C            2.19805913895030       -9.09433424719297       -2.41982462216762
C            2.61888931103654       -9.35019320734792       -0.97891844164373
O            1.77302292230125      -10.29867396348127       -0.33427363118590
C            2.18662160308161      -10.58780999134487        0.98219642697714
C            8.80848140976534       -9.04179727106562       -3.46662230231097
C            9.28078229057074      -10.00651041190186       -2.42888297624229
C            8.65794816627160       -9.75350196015925       -1.06415878282561
O            9.09987423107667      -10.69394085115343       -0.08929106855409
C            8.51272699704218      -10.48049087811578        1.17432968984174
C            9.47996826452055       -7.93460164041464       -3.89665306037061
H            4.16828749022955        2.77044366797719       -3.69145349320600
H            5.59734325268666        1.72164319943862       -3.83952299302228
H            4.41084726925048        1.44182062766308       -2.53365897835078
H            4.10501232680581       -0.78279991834806       -3.28676435492032
H            5.29430143496731       -0.50387498802272       -4.55796784917410
H            3.53156050144110       -1.00653110885321       -6.29038420365636
H            2.37113492283613       -1.29777609874678       -5.02515605444271
H            2.33689233268751       -3.73594860912490       -3.94903261886142
H            5.67556529408516       -1.75086582330081       -6.95912172767808
H            7.96867029136443       -1.83484880961842       -6.62217307068697
H            6.77808274323469       -5.31693434542214       -5.53539306849319
H           10.95900593429819       -5.48050170225927       -5.14909038922063
H           11.49092128253291       -2.90681192597299       -5.52516237010437
H           10.15349214350491       -1.81214230591010       -5.73233868587408
H           10.00537875949035       -2.45517150591393       -8.16741896402956
H           11.36976470437546       -3.54939415235393       -7.94670804612619
H           12.82528949501328       -0.58100409755653       -9.30760121413362
H           11.23071956551429       -1.22102682681223       -9.76763932418568
H           12.61372616499796       -2.33047810209521       -9.54921858381809
H            5.96361214440522      -11.91318461537711       -3.57951591431187
H            7.11183880680256      -13.79682831922525       -3.58679542278031
H            8.81126188415448      -13.77410390707936       -3.98797428469248
H            8.23223337220077      -13.80037767717491       -6.43728227316315
H            6.53919650647387      -13.84356985418243       -6.04092264893796
H            6.85741094337562      -16.03560614640534       -4.85707776644335
H            8.55874703177725      -16.00577411379351       -5.24098489749670
H            9.17227999227491      -16.41286384769484       -7.30480525788388
H            4.49067185254624      -10.44112684432516       -3.20467478563188
H            5.79822973574105       -7.09637423879265       -4.55018581974359
H            1.86125229265528       -6.32771066917925       -3.21886706848943
H            2.17119317115001      -10.04230408627853       -2.96697768334722
H            1.16848284516600       -8.72201130619237       -2.43584358889633
H            2.59505661304079       -8.42010364317886       -0.39916697270393
H            3.64708166775898       -9.72739703181968       -0.93892635528535
H            1.49969492312578      -11.31774820437772        1.41227937944080
H            2.16804501144311       -9.67891483815528        1.58464800742639
H            3.19371310521031      -11.00635387585759        0.97100828176803
H           10.37147886742837       -9.95889499662872       -2.34886181730665
H            9.05725914992114      -11.02817537778208       -2.74581224589147
H            7.56531296686484       -9.81257497756003       -1.12551154865160
H            8.90674300968950       -8.74722115286903       -0.70798721132535
H            8.89144499869592      -11.23322174420669        1.86697549491297
H            7.42840485381856      -10.57380708112708        1.09991366695308
H            8.77627477769967       -9.48794306767480        1.54249754602197
H           10.46624946597534       -7.62351569780703       -3.59763492861240
