97
 energy: -17.720522697873 gnorm: 0.000820399263 xtb: 6.5.0 (97a52f5)
C            1.02760877556067        1.60343609820080       -0.33968229165429
O            2.39877685339804        1.93054711038295       -0.34994467989093
C            2.93255794412062        2.01440598944697       -1.66873144712104
C            4.41613441383777        2.35583147095889       -1.66670581301609
C            4.99069597559495        2.45626268889599       -3.04270496919664
C            5.71203326950864        1.49985713205503       -3.69099596155217
C            6.00850617801734        2.01806057465042       -4.97881899513812
N            5.48823280486100        3.24839136968998       -5.11370144377930
C            4.85907270509154        3.54846498991959       -3.96307942268512
C            4.23392515998051        4.79760741518113       -3.65162317256478
C            4.13614828397908        5.87944021354612       -4.47471720274937
C            4.46157282348312        5.88767730532915       -5.87377955965651
N            4.24715858646810        4.83870299273990       -6.73852434048323
C            4.83777930011052        5.10981637708767       -7.94526424596851
C            5.37804557768009        6.40349753650214       -7.87092047804763
C            5.12243145273062        6.90425192247956       -6.60716258256059
C            5.52537074505100        8.24775146322822       -6.09306303629704
C            4.41955945103754        9.28642466779097       -6.21619185317574
O            4.81858948504137       10.55656561571824       -5.70728159054932
C            3.80329819783662       11.52815963870565       -5.81470123516695
C            5.08740559294049        4.07856415115046       -8.94261902447573
N            6.31350768181914        3.79828036077755       -9.41445873452851
C            6.23891119143973        2.58034124730615       -9.98715920221443
C            7.41741740236425        1.76364119119520      -10.33487641523376
N            7.87617253758386        1.70826939840290      -11.62657344883899
C            7.29271593718878        2.28847252069752      -12.76108452474079
O            6.21106452562199        2.82797499415209      -12.75470144137138
C            8.07117283121274        2.23293107201466      -14.04308905159096
C            8.46858285146782        3.62600053808132      -14.51374703992009
C            9.24661944424162        3.62412221432784      -15.82175367898366
C            9.62181419552839        5.01763536066129      -16.24283004073844
O           10.54997424855567        5.57730242364917      -15.69966252681089
O            8.84338547541771        5.56817445495554      -17.22090237287600
C            9.27079091446673        6.86557721121421      -17.50585354965056
C            8.04164258115796        0.97141911732265       -9.35903343900236
C            7.70448118677424        0.91762220960221       -8.00501491909808
N            6.87976355231694        1.77842780566535       -7.28760431478918
C            6.77529119796213        1.35812527491402       -5.99830497138299
C            7.55596799235191        0.18259497058766       -5.86853806882500
C            8.14626097868321       -0.08128629049092       -7.07535864196203
C            9.00525886722429       -1.26052348247339       -7.39376096911961
C            8.24693224128579       -2.36100661844876       -8.12321035435066
O            9.09004088139485       -3.45423027959684       -8.47507973722419
C            8.39799187439624       -4.47108291402189       -9.16373497003051
C            4.90518604451819        2.06659915748860       -9.88740841792369
C            4.45611860546971        0.69313016698542      -10.25560474988506
C            4.46155100996562       -0.25763883090336       -9.06661369473586
O            4.07177202175968       -1.57970029419503       -9.42619310615999
C            3.98073538669476       -2.43649212974955       -8.31026878895263
C            4.19207819003929        3.01306115055278       -9.21621694769819
H            0.68594498565313        1.56131458385729        0.69534812030096
H            0.87508953211614        0.63007157600728       -0.80794048291476
H            0.46028564665173        2.36620254657120       -0.87475193662941
H            2.36347281544127        2.77152514870239       -2.22000235488540
H            2.76065294714562        1.05488195731141       -2.16980207853822
H            4.96101703581976        1.59725703327882       -1.09558432140514
H            4.57671640835296        3.29423323683604       -1.12696370200147
H            5.99255883553912        0.53541307396270       -3.30411588887006
H            3.89001289017267        4.91049195314357       -2.63788171594750
H            3.82171716020545        6.81792010339647       -4.04593029658799
H            3.90342205836994        3.91845296219490       -6.44595873836561
H            5.92483498022781        6.90275225882321       -8.65216441476117
H            6.41281247634797        8.59693027789387       -6.63049228672238
H            5.83310305745718        8.16436695605737       -5.04605070847231
H            3.52622460778741        8.96400042271135       -5.66979318913885
H            4.12735900918918        9.41410811909490       -7.26456112906144
H            4.17484781397732       12.46820807586683       -5.40486027280747
H            2.92580885424761       11.21189007973569       -5.24945816859919
H            3.53833959608447       11.67392115030212       -6.86244351158076
H            8.72765325443688        1.17943401750372      -11.78060750808034
H            7.46100117708040        1.73859245507797      -14.80510687066028
H            8.96088519829549        1.60894866811187      -13.91730676984877
H            9.06190811043315        4.12187479577981      -13.73637979907083
H            7.56888920928946        4.24370926880566      -14.62154208124247
H            8.65554864918195        3.15745746408272      -16.61540541411139
H           10.15623004181538        3.02464343482279      -15.72223071065654
H            8.63742236959699        7.28811326939550      -18.28883560557976
H           10.30849271459541        6.83747158977136      -17.84587344010887
H            9.19773863340337        7.47648303143009      -16.60323862125822
H            8.80712448765772        0.29936056251480       -9.69979690460303
H            6.39833772297662        2.60255386590412       -7.65037398867217
H            7.67514713663722       -0.39822673783862       -4.97075575958922
H            9.43669813072199       -1.66412837040964       -6.47213264106307
H            9.85989705874394       -0.94249997545500       -7.99896886940763
H            7.79233528742289       -1.97213314436778       -9.04143739369351
H            7.43274260295747       -2.74470324701604       -7.49841040832326
H            9.10306594437764       -5.26495376862955       -9.41337556450584
H            7.96670468509286       -4.07015291346960      -10.08208476533772
H            7.60956442966648       -4.87853028958553       -8.52952546068300
H            5.10291780156256        0.29676189671352      -11.04471338854972
H            3.45209297745623        0.73569971704341      -10.68933159592907
H            3.78201918392882        0.10222380260865       -8.28559539235271
H            5.46083155879701       -0.30993522005270       -8.62073064930100
H            3.73167525608518       -3.43974940841184       -8.65831184270541
H            3.19759862770497       -2.08456422728858       -7.63731894187033
H            4.93469774059490       -2.46454165179003       -7.78274273417822
H            3.17002387346457        2.93229087469305       -8.88720833728626
