28
 energy: -3.869063550404 gnorm: 0.000969931022 xtb: 6.5.0 (97a52f5)
C            1.78591747463225       -0.89504437828742        0.41310333979688
C            1.30669197738224        0.12090380966902       -0.10755038539713
C            1.23866880638028        1.49345270145691        0.27317821930792
O            1.07486208004394        2.02280786959975        1.51589070750659
O            6.89185259492411       -0.73467945170839        2.69368090394340
C            7.34827084501293        0.31775517893704        3.20907904438798
C            7.34957716588028        1.64424503264146        2.77349663369482
C            7.87568872750897        2.67163222127179        3.48658523569401
C            8.46616763639947        2.51693504026344        4.72719440225047
C            9.00272094033232        3.49460791460935        5.51040801009336
C            9.56777421677027        3.28462232437002        6.74396431718249
C            9.68559721187500        2.08287463161990        7.37879343657649
C            9.30575294596532        0.90513318242002        6.98429175782342
C            0.68790373730370       -1.46626639126820        8.59721448355674
O            0.98959608812708       -2.71348039635788        8.69652313437898
O            1.05042255613324       -3.69903951677641        7.76906608671403
C            6.69229250961600       -3.32200176056796        5.32881453461580
C            4.63050951558685        1.09258224552803        5.20984380054028
H           -1.08046067724931        0.17695511486278       -4.03044781062758
H            0.91250854561400        1.51323221313782        2.36287860510145
H            5.77431459021201        0.01810497685828       -1.46121136555421
H            6.89971184265581        1.84953499685481        1.81627624955741
H            7.83202710936187        3.66718056021697        3.07640947068582
H            8.97425682138241        4.50161142960509        5.12646124202286
H            9.95783890892720        4.14142990255068        7.27089690770993
H            3.58202994491997       -3.29223490165791       10.85009379428829
H            9.44583409838818        0.03604393495124        7.55797743600982
H            0.85977178397674       -3.57386848830246        6.80700780625642
