85
 energy: -15.747875103176 gnorm: 0.000661991945 xtb: 6.5.0 (97a52f5)
C            2.15375347668670        2.55256616636481       -1.39936526439992
O            3.52789495862764        2.23960229441342       -1.35619522688731
C            3.97298710243163        1.56752565927972       -2.53167982555828
C            5.44807470801132        1.19797478369118       -2.45976670952810
C            5.93115221022263        0.50321201497651       -3.69152719992683
C            6.05897431044879       -0.84190629773679       -3.86294807730372
C            6.49650467690748       -1.04088328462214       -5.19851377847234
N            6.63258340058742        0.14061400745613       -5.82278321053323
C            6.28930994849658        1.10148608720837       -4.94525348083101
C            6.34978169989151        2.51309014428971       -5.17766123654503
C            6.68246125102383        3.13147041882524       -6.34604457210512
C            6.82213475628433        2.48197989763991       -7.61798532735571
N            6.08260768102030        1.39829233281515       -8.03232027225874
C            6.58856740906301        0.91841911915276       -9.21257662854817
C            7.63211894927138        1.77290243452319       -9.60270437285445
C            7.76440947125066        2.75787460622314       -8.64009611505890
C            8.75929191200233        3.87190449869052       -8.65446289498255
C            8.24400325011048        5.11341794623422       -9.36896181532184
O            9.20178056590336        6.16921793849956       -9.37144800674252
C            8.74146997120304        7.31587948958921      -10.05038972161962
C            6.26637471470023       -0.41134003735946       -9.70742608033246
N            7.20118441220335       -1.33203491894938       -9.99978334791897
C            6.58492412496943       -2.53152621842966       -9.97260749975648
C            7.29937440961612       -3.81651960962203       -9.89063116752597
N            7.77236998527205       -4.44346956265042      -11.02003836617036
C            7.73600596926849       -4.09543260519949      -12.37811713378335
C            7.08323044691441       -2.81936733919805      -12.78792978018876
O            8.22509208730334       -4.82160440036637      -13.21593637273587
C            7.45326243298606       -4.44437391046354       -8.64389765169574
C            7.20208955824586       -3.84549474344000       -7.40722940801189
N            6.99721064781837       -2.49424628675853       -7.14251563197963
C            6.76681302558632       -2.30963839654402       -5.81487591044603
C            6.82763775419995       -3.58109691258369       -5.19092382290237
C            7.11569777342593       -4.52035700483914       -6.14505933395928
C            7.17548864480013       -5.99673805211154       -5.93382808085182
C            5.86160502049289       -6.68545162959934       -6.27598934602802
O            5.93379543253017       -8.10001231940310       -6.12161728778081
C            4.71012186625137       -8.73558686968014       -6.41506815293223
C            5.19195506973561       -2.36702459987099       -9.67543509557347
C            4.19599715386710       -3.44907850198490       -9.41690489654128
C            3.77260448560414       -3.51913854482628       -7.95543426899141
O            2.90595993974403       -4.61845106669269       -7.68969664594748
C            2.41410255043417       -4.60672486434238       -6.36809299392305
C            5.00361122944910       -1.02839038714565       -9.51173264391788
H            1.88623491647207        3.08219837395995       -0.48410825043558
H            1.56698131885950        1.63552395837372       -1.46768764268974
H            1.94411595822929        3.19172354914743       -2.25811104980015
H            3.78113845107985        2.21976354523102       -3.39118868323253
H            3.35960700179618        0.66937019741764       -2.66717585716918
H            5.61986325242933        0.55963893327453       -1.58693981238214
H            6.04444128497556        2.09803063545594       -2.28097664916829
H            5.85452738922324       -1.60425712053063       -3.13113583987858
H            6.19260418889179        3.13600632430616       -4.31376948425260
H            6.87950638216168        4.19164365056484       -6.32234276360673
H            5.42046019272318        0.89700511136218       -7.43201523072006
H            8.25059992818254        1.65287842524616      -10.47544980226225
H            9.68360310611808        3.53314500341987       -9.13381625387742
H            9.04124777421965        4.13037758013053       -7.62872883921492
H            7.32982067820819        5.48121866966442       -8.88915729459528
H            7.98934029804289        4.87869347924811      -10.40888650426318
H            9.51662737435620        8.08218173281464      -10.00941454438684
H            7.83738524738017        7.69383243731570       -9.57092488796707
H            8.53386243573174        7.07146381294888      -11.09313216567823
H            8.24131498430902       -5.32515098200353      -10.86438918855178
H            7.54811282507504       -1.96952619337007      -12.29052635317669
H            6.02289953688951       -2.82816344653667      -12.53914493535388
H            7.17740953611128       -2.67481081581447      -13.86319539935320
H            7.78098518418437       -5.46739305479092       -8.64369937805674
H            6.95584305683108       -1.74032220562201       -7.83092701716884
H            6.66954745076392       -3.77705574449027       -4.14487636346629
H            7.44228997481371       -6.21181103081575       -4.89422959700831
H            7.98221171368847       -6.42571066740318       -6.53601936383988
H            5.57217732048561       -6.46946353065044       -7.31087972178454
H            5.05582916452560       -6.31165530903623       -5.63453044942946
H            4.83464552467099       -9.81211670403709       -6.29132595084587
H            4.41930709570014       -8.52343188796827       -7.44500556969236
H            3.93638084326364       -8.38313356837693       -5.73165194635453
H            4.61622667354102       -4.41369419365461       -9.71854335079268
H            3.31507135514533       -3.29965259073176      -10.04923847591050
H            3.26185700772477       -2.59614556553204       -7.65833819552990
H            4.64860012413019       -3.62006804807571       -7.30615555566210
H            1.81928103209853       -5.50642731393241       -6.20627872463041
H            1.78450659128097       -3.72884845819055       -6.21673368007067
H            3.24346504201759       -4.59099487556181       -5.65988300039075
H            4.09556033881391       -0.54393358821394       -9.19557157059671
