79
 energy: -14.579105027946 gnorm: 0.000907460613 xtb: 6.5.0 (97a52f5)
C            7.33772547873715        1.24821341434644       -1.08407079561319
O            7.40326480931479        0.31215999002318       -2.13681205267910
C            7.23062270070644       -1.02915744085074       -1.68546378307914
C            7.31937106655453       -2.03590066306250       -2.82421420230748
C            7.15664303983204       -3.44815816385414       -2.36407827238565
C            6.03910306047483       -4.22191172294822       -2.48742347355096
C            6.33979927925921       -5.45871270775423       -1.85641400671055
N            7.59331172352284       -5.44169453761289       -1.38166705047425
C            8.11668662683339       -4.23818530000838       -1.64270062376535
C            9.44745598930332       -3.82305689078741       -1.30326759937867
C           10.11792478156134       -4.06590707352179       -0.13951823244189
C           10.04181714133038       -5.21092982376807        0.71294829801910
N            9.22853675266767       -6.30414610625835        0.54631552503694
C            9.37428128433834       -7.18516753635390        1.57652246954254
C           10.35680596927262       -6.65988568363889        2.42751385774104
C           10.77395780367809       -5.44411245589710        1.90389883258993
C           11.83163242027588       -4.56271169181712        2.48428072137087
C           13.18489394232589       -4.74144998768402        1.80990761837569
O           14.18159084819021       -3.88738960373396        2.36678118405073
C           15.43699930695927       -4.04340445088956        1.74354024036033
C            8.52964866248069       -8.34750101971415        1.73229588977668
N            7.67776130037397       -8.74090105598679        0.78003366702419
C            6.92683071340920       -9.73234516414765        1.29217683312517
C            5.87394019279391      -10.46125086459179        0.57880811909094
O            5.73728361630758      -11.78830350545855        0.81756590796349
C            4.93967170668850       -9.90041756951226       -0.34132530484016
C            4.89197661993428       -8.65023804125159       -0.94021319931008
N            5.86176466878688       -7.66197927591840       -0.91525948186965
C            5.49896397148730       -6.60301972848798       -1.68051890950716
C            4.21605985912272       -6.89492233028754       -2.22029971759303
C            3.84480527160892       -8.14204136674475       -1.79535988916078
C            2.55607436797867       -8.82771454143092       -2.11052441083759
C            1.56351020716224       -8.77935752618701       -0.95689385049381
O            0.34747858924283       -9.45771370796519       -1.26283218283771
C           -0.56073585743061       -9.45282028035268       -0.18411408745525
C            7.33251051329366       -9.99054229274591        2.64395327178824
C            6.65966882558419      -10.86070867574858        3.65781414874268
C            5.92365991441183      -10.05390095478734        4.71877529711893
O            5.31843572875071      -10.85058914490514        5.73046262049069
C            4.25386510924941      -11.64224139518549        5.25494645889998
C            8.34957483481072       -9.11689965451901        2.90506527020398
H            7.47524514279958        2.24915376365973       -1.49507236343900
H            8.12709915984541        1.04734554472054       -0.35838611261270
H            6.36349605182082        1.19188149471193       -0.59651966541022
H            6.25785002973721       -1.10056365977783       -1.18554398997518
H            7.99532431490611       -1.23649914888811       -0.92837600290400
H            8.27794373164510       -1.92287601849308       -3.34030545923390
H            6.55702412546626       -1.80279894959394       -3.57462803564581
H            5.10903075833943       -3.94370425368320       -2.95217100857020
H            9.78380019729716       -2.96374143644549       -1.86266051615876
H           10.84249439513785       -3.32861682289602        0.16446863625380
H            8.48688807758272       -6.33094914492986       -0.14526983621059
H           10.70972571546564       -7.11046511486032        3.33889960350427
H           11.93098768678378       -4.76446017437809        3.55590408679622
H           11.52158811084051       -3.51521822524461        2.41454272347466
H           13.11146524085880       -4.52843464253288        0.73746548801763
H           13.52763981510297       -5.77787846819796        1.90782133271238
H           16.15108079922818       -3.36901051966258        2.21785327578543
H           15.35906587053939       -3.79551572555924        0.68407963023695
H           15.78409650333051       -5.07112832166316        1.85872904454854
H            6.50749749646854      -12.12422466988390        1.32106825989055
H            4.15402982039961      -10.57920001932517       -0.62107802595018
H            6.71715707608621       -7.75471039328301       -0.37692301078094
H            3.64132165076137       -6.24914984126315       -2.86067134137545
H            2.74856126014182       -9.86966581880571       -2.38520362721951
H            2.10359077976493       -8.37315578822672       -2.99789094944643
H            1.32349025974823       -7.74119252476557       -0.70013426105928
H            1.99419005248021       -9.23918635798456       -0.06015113786720
H           -1.46572190874055       -9.98401363102065       -0.48161522405129
H           -0.81886974861505       -8.42632530094974        0.07998682066912
H           -0.11780799387724       -9.95639700500889        0.67633300271805
H            7.40170670750098      -11.50645177632073        4.13802179829502
H            5.95294186424254      -11.52962593607901        3.16198385170441
H            5.15012751040805       -9.42291817609888        4.26590397980661
H            6.61671413244540       -9.37285618870123        5.22634520066779
H            3.72913683515581      -12.07094504283537        6.10979167402120
H            4.63760924762881      -12.45261709313223        4.63472108758307
H            3.55660833430222      -11.03170267386765        4.67949453693774
H            8.85989805572056       -8.98498540669552        3.84379142923258
