84
 energy: -15.508414234422 gnorm: 0.000723712775 xtb: 6.5.0 (97a52f5)
C            3.31134372632763        3.11443798645917       -1.52624877657539
O            4.49133983585399        3.60799580281690       -0.93322552361168
C            4.63349105183247        3.19990027968808        0.42494469807235
C            5.91806607218436        3.72473053536402        1.05125913042952
C            6.08092160828572        3.30693746056160        2.47667012954618
C            6.78441648233516        2.22807836169330        2.92431527322721
C            6.60977731025397        2.19547037526802        4.33378260478688
N            5.82480609129839        3.20776192286563        4.72455986911121
C            5.47289571865942        3.90474368138627        3.63687338736841
C            4.61953949010458        5.05328409295400        3.60916259148781
C            3.94020499311653        5.68597370467987        4.61437779226405
C            3.87945408661504        5.40831341006978        6.01352040873777
N            4.58988203100684        4.46167160064003        6.70575533313861
C            4.24970662779956        4.45240250832181        8.02511965361971
C            3.28624614073215        5.45786205250910        8.20362961830621
C            3.05489496620599        6.05332215514014        6.97427581866776
C            2.12738907075237        7.19802169736746        6.72397563739712
C            2.84382190786347        8.54083259037842        6.68002084959957
O            1.94833290875400        9.61995744366369        6.42537003784672
C            2.60446149706273       10.86653692924462        6.36778593034890
C            4.79066269471828        3.49957090771837        8.96194978355282
N            5.81418466470225        2.70050435903920        8.64666955551857
C            6.00880799362195        1.85923812093903        9.67594703958707
C            7.04254539036472        0.83911774930340        9.75875495466564
O            7.46554600555409        0.42620506130500       11.03165580624515
C            7.91112980470581        1.37423829871697       11.95607098531968
C            8.28269063146661        2.73248121544811       11.45326352872875
O            8.00474783948112        1.14746156955521       13.14078149104321
C            7.67332380676806        0.17954780156713        8.67943014418010
C            7.60625227411657        0.37297390145820        7.30056187005284
N            6.92720009100607        1.35880028703733        6.61225325952418
C            7.15455252171768        1.26885199890590        5.27681266366852
C            8.00932439656478        0.15475829269590        5.07330720565105
C            8.29949539181063       -0.39217195432004        6.29617603702121
C            9.14209033322464       -1.60295759676572        6.52974551026257
C            8.31700018853888       -2.86218991896226        6.75481513602733
O            9.13489261740518       -4.00977550753387        6.96990779648611
C            8.37953993441427       -5.17794877930842        7.19733052816815
C            5.05137050685198        2.14235264615873       10.70895618319321
C            4.76691385500601        1.34275651266258       11.93851420723903
C            3.80654487557056        0.19213289848524       11.67384136886741
O            3.49987784797074       -0.53900322861089       12.85824412493234
C            2.67361338895251       -1.65356539656586       12.60818982710841
C            4.29308458741042        3.17947680085528       10.24856011506426
H            3.26484276046898        3.46478308798004       -2.55822493409890
H            2.44046037665763        3.48308388052694       -0.98236777601365
H            3.31995640183852        2.02358805095493       -1.51801566371134
H            4.61128238846410        2.10455443575254        0.45755208196650
H            3.75938474825776        3.55563271366278        0.98209837238453
H            5.94458249526993        4.81627298243147        0.97695803972098
H            6.77502023995537        3.37472491092756        0.46667123861189
H            7.35370638847040        1.53546438271338        2.32886500185119
H            4.48457166278674        5.46725929510697        2.62328092112716
H            3.33625783593204        6.52677559173043        4.31349426057430
H            5.20565590740267        3.79786048212848        6.25020680645258
H            2.80968000128760        5.71805194353842        9.13279091650055
H            1.35693077507975        7.22364867070977        7.50152076704370
H            1.58601781855447        7.03966562751171        5.78594603225981
H            3.61201860262112        8.54239569362094        5.89849701985706
H            3.35297953824669        8.73528482893004        7.63096603349978
H            1.86354427684732       11.64363140882462        6.17566038692872
H            3.33818074303645       10.86278272182191        5.56051246112393
H            3.09950167887463       11.06983496183500        7.31836875383082
H            7.45444963148919        3.42795543761682       11.57711539971585
H            8.55130573920666        2.70085100299370       10.39899714302837
H            9.13513027100219        3.12010425362705       12.00809632858780
H            8.34311382514615       -0.60024054998432        8.99590918890554
H            6.37759233867432        2.06969275419508        7.08276690156585
H            8.37154287391031       -0.19440391539744        4.12235536835273
H            9.80241399339065       -1.43758239149012        7.38674824366098
H            9.80980832570729       -1.75612286315561        5.67573743923429
H            7.67304516869533       -3.05826940414105        5.88976164436502
H            7.66005730485123       -2.74214957848959        7.62378738941393
H            9.06396326013831       -6.01503689943645        7.34129993338536
H            7.74088498133570       -5.38095574756632        6.33647465117148
H            7.76863212236597       -5.05548302639247        8.09287109669210
H            4.35162730041810        1.99475465698703       12.71357564333912
H            5.69504755778592        0.94340167869441       12.35585642390274
H            4.23585163916310       -0.50196295637553       10.94171211626360
H            2.86627001160621        0.56559638503694       11.25209922967072
H            2.45506284699123       -2.14690361679269       13.55615497294801
H            3.18736818660169       -2.35499173276962       11.94919774882321
H            1.73912777680881       -1.32831858791061       12.14876666630964
H            3.43967694573101        3.61858879922060       10.73620216489351
