75
 energy: -13.979080067282 gnorm: 0.000786841749 xtb: 6.5.0 (97a52f5)
C            2.43920834458019        3.10305394596545        1.62719029370011
O            3.21863446133712        4.23759822046994        1.93635958490870
C            2.42567986247939        5.35545666435870        2.32535177467890
C            3.27092377701614        6.58637597673438        2.64273812410047
C            4.17929939388270        6.38457073669093        3.81273121192855
C            4.75931804950818        5.21156051984682        4.18318572086519
C            5.57064289270012        5.49850701333034        5.31601543010769
N            5.49813005315466        6.79965008174362        5.61683928960095
C            4.67472442297696        7.38694539586612        4.72993866847008
C            4.34412327520236        8.77010540886936        4.67409244173285
C            4.72912188679656        9.82917802176305        5.46521775967169
C            5.58193063153100        9.87818860792631        6.59759308166884
N            6.25391378661932        8.82983216056833        7.16969794054399
C            7.00553065870992        9.23839914041096        8.22949059790007
C            6.80683413813966       10.63048650596317        8.35451679740642
C            5.92950581272834       11.03240766420002        7.37177323080359
C            5.48512819048491       12.43865614038145        7.12614559697012
C            5.44755010614518       13.28561194455668        8.39578012943895
O            6.73743504998543       13.44932531571087        8.97884977502022
C            6.70451241521509       14.22267772912334       10.15814316786481
C            7.81668210756690        8.34043205455228        8.99183258840223
N            7.88646533828254        7.03883977832601        8.69074997075473
C            8.71079957568521        6.45051705808084        9.57522611188958
C            9.05224687894981        5.07034963165910        9.62663457236649
C            8.67253067549709        4.01330315183862        8.83107551716529
C            7.81278017896290        3.96631561381417        7.70433058852650
N            7.12838046253956        5.00995462703872        7.13967164230569
C            6.38126298594095        4.59905061124293        6.07737876491808
C            6.59189961842255        3.20844438375893        5.94293672429450
C            7.47354046482331        2.81378140746399        6.92638874144238
C            7.93778761260071        1.41399834680292        7.16539133683011
C            7.11781557493628        0.69077873087608        8.22714365444693
O            7.57425315296458       -0.63400878279129        8.44556064733081
C            9.20213219473821        7.45018861354050       10.49470817496631
C           10.09966302916223        7.23551160774021       11.67003241387463
C            9.35447867540170        6.73403475213650       12.89944419936145
O           10.22399231320607        6.52355768028601       14.00995118188390
C            9.53969301524379        6.05211143325159       15.14928073466393
C            8.62862387290478        8.62814554265839       10.12544141322559
H            3.10399188681564        2.28509707194421        1.34677678559634
H            1.77387693380607        3.32543759316704        0.79188783232010
H            1.85289372170149        2.80543606283391        2.49758745579877
H            1.83930620398387        5.06161064258804        3.20349911163903
H            1.71703658031187        5.56128348497097        1.51388894307562
H            2.61988446678218        7.44693695100868        2.82970746759415
H            3.87664093878820        6.84252962963438        1.76749345133184
H            4.62958225948792        4.25740921525459        3.70389727266163
H            3.68096531827562        9.02229520182929        3.86284744784484
H            4.32492949979748       10.78808551174115        5.18426058530615
H            6.18797567604881        7.88344839139223        6.81311583137412
H            7.26643597308355       11.27352480424077        9.08360481799248
H            4.49690037697498       12.43054603347361        6.65380927274073
H            6.16654883406511       12.90161545336745        6.40515031141869
H            4.79727538681743       12.81827685109478        9.14401370222815
H            5.04441336382338       14.28512803138610        8.19230875336473
H            7.71749684973270       14.30386415631105       10.55432603829542
H            6.06709596369901       13.74144451300522       10.90115205427249
H            6.32594644769922       15.22165928521780        9.93752599997780
H            9.72467007190364        4.82281682697776       10.43190649263424
H            9.08778080330233        3.05558932746464        9.09965677264290
H            7.18946824675241        5.95675096420553        7.49554436334886
H            6.14217188213160        2.57160469247128        5.20143138989892
H            8.99323806639218        1.41687872465911        7.45492745943297
H            7.89651823086122        0.84839802948707        6.22892549890471
H            6.06266806495188        0.66024520906160        7.92611827468417
H            7.16051797084991        1.24254984759103        9.17485962946072
H            7.03893712059874       -1.08635812501781        9.12873155667770
H           10.61397949592723        8.17073795290172       11.91423004059293
H           10.89429973157674        6.53011883911191       11.40764229674526
H            8.84349062006147        5.78971448707601       12.68025729592164
H            8.58298725046812        7.45247644129974       13.19913775849151
H           10.25724390669422        5.91467751615537       15.95919723862724
H            9.06273560134883        5.09626818084544       14.92777548113901
H            8.78628018656766        6.77817488350328       15.45797485224074
H            8.75373113090597        9.58439388098141       10.60311086769595
