78
 energy: -14.188667241545 gnorm: 0.000860650145 xtb: 6.5.0 (97a52f5)
C            1.66816798749595        1.16686385414127       -0.04170511050271
O            3.03188183950769        0.82504022130537       -0.15301945622352
C            3.33619552978487        0.18544722663415       -1.38975978177665
C            4.81571859274027       -0.14429936742870       -1.51869717635191
C            5.14451158497527       -0.81877711859733       -2.81038412556912
C            5.16793324200766       -2.16587057422602       -3.05403551986181
C            5.46511589263984       -2.31763057398272       -4.46100060095643
N            5.60180889411491       -1.06709703879460       -5.02700439148208
C            5.40705417491493       -0.21914314107588       -4.04069740279476
C            7.55534768841645        0.01026634352307      -15.30105301456586
C            7.53797122679520       -1.09751542523690      -16.01186141567668
C            7.35799453146416       -2.39081070121374      -15.46149330423060
N            7.18564811971918       -2.66311329235700      -14.13794620271725
C            7.05222614811439       -4.02453633435707      -13.95573420396775
C            7.15257403047941       -4.63563479817278      -15.25160884151605
C            7.32648573862579       -3.65208577224016      -16.17197369861769
C            7.50907192280850       -3.84519269301232      -17.64122930226847
C            8.97271070450976       -3.87205731698813      -18.05871566391561
O            9.12671718755973       -4.03884304448933      -19.46618468068045
C           10.47969478460586       -4.08047075455822      -19.86106005409469
C            6.84262438784540       -4.65193079400504      -12.71659709371342
N            6.72624623040348       -3.98816826103479      -11.54280964411224
C            6.50796458978142       -4.92041241804600      -10.58500151491438
C            6.32076661497788       -4.55526268495416       -9.24503280690824
C            6.10788904578782       -5.40091134132942       -8.17880175348521
C            5.88335637609459       -4.95623542921441       -6.87531539368865
N            5.84577164674055       -3.63124539298572       -6.50837528963781
C            5.58523138115418       -3.52473704993898       -5.16580462491045
C            5.45496152293991       -4.85819672896412       -4.65430071090927
C            5.62791765159741       -5.74009584031459       -5.67171784159476
C            5.55948531831458       -7.22640438154666       -5.45632059584140
C            5.56071955231000       -8.10358889484169       -6.70076895997747
O            5.35784865263403       -9.48118594103905       -6.39670387698476
C            5.35053526186849      -10.28851518123619       -7.55396801466247
C            6.48477835393641       -6.25126067035346      -11.18333076076384
C            6.26262717655261       -7.56318746435544      -10.49625832621964
C            6.22497514120531       -8.77445890975379      -11.41913681099639
O            5.99014306264825       -9.98276216218117      -10.69798586775913
C            5.91788737221578      -11.10903162951031      -11.54288545051406
C            6.69713708043739       -6.06508482323394      -12.50399398750778
H            1.50149683588832        1.63396359678531        0.92987529821546
H            1.05128308790824        0.27024493491628       -0.11796393312040
H            1.39722750408816        1.87129280700741       -0.82955950769267
H            3.02020046385020        0.84647555707033       -2.20517268110173
H            2.73105926983435       -0.72553935496130       -1.46198896926691
H            5.12347093908247       -0.77929051096906       -0.68216542252078
H            5.40402508015239        0.77378931871310       -1.42581596924703
H            4.98777063244917       -2.95158673082386       -2.34056088374576
H            7.63805975015656        1.03396395161729      -15.20424558941657
H            7.67081206964156       -1.02817684808396      -17.08168698977185
H            7.15730500603516       -1.98149337012589      -13.38294001877008
H            7.10058468594578       -5.68989355476093      -15.45885091409231
H            6.98831777182909       -3.05160237728784      -18.18629496994086
H            7.02509577116493       -4.77654730705758      -17.95289327627241
H            9.50020360770250       -4.69063721261240      -17.55584331870201
H            9.47285798299139       -2.94130524877485      -17.76787055782613
H           10.52498701962136       -4.19086701225821      -20.94523393993996
H           10.97696499661617       -4.93100443535701      -19.39266137638236
H           10.97947212162976       -3.15407702507406      -19.57414453388296
H            6.34282437732799       -3.50116304861365       -9.04516779879988
H            6.11147198758018       -6.45237518971495       -8.35955200091301
H            5.98131414836906       -2.82479883999907       -7.11386570521168
H            5.25034908238875       -5.11740947140937       -3.63051388853676
H            4.65399010210765       -7.45039069625089       -4.88193156362043
H            6.38880731049082       -7.52909328265379       -4.80830592894899
H            6.51931094710919       -8.02703595697508       -7.22519122260951
H            4.76357326808422       -7.79610526555162       -7.38699242181403
H            5.19703530998954      -11.32710019474614       -7.25861271703116
H            6.30439468849437      -10.20109166280164       -8.07644317357777
H            4.54119110626796       -9.98084490484165       -8.21763679266141
H            5.31732652640638       -7.52490398186253       -9.94586078808000
H            7.05087084844760       -7.71915058419136       -9.75301043672348
H            7.17239711905558       -8.87957884927001      -11.95969681255014
H            5.43167390224981       -8.66492856508306      -12.16721270755488
H            5.75562929653803      -11.99811832018912      -10.93247635440497
H            6.85200265913957      -11.21938890832272      -12.09529324768253
H            5.08630492593555      -10.99662125834082      -12.23992234437145
H            6.74158155673554       -6.82693389721994      -13.26212326854663
