59
 energy: -9.534532753100 gnorm: 0.000706732950 xtb: 6.5.0 (97a52f5)
C            1.29645949578375        1.10169333948673        1.31080478370474
O            2.23313845527234        0.39393418317057        0.53174090566650
C            2.77924891202934        1.17882702468800       -0.52421346601667
C            3.79424816294795        0.39300457317129       -1.33804519496884
N            4.46171244952107        1.17986658448109       -2.39772956220123
C            3.59238004072060        2.01018038135505       -3.26041553652124
C            2.57545786332049        1.19278594966322       -4.03729615119481
O            1.75790376821656        2.01500859572052       -4.86472988507286
C            0.76956394319139        1.28475271560149       -5.55431386613621
C            5.83128488087046        1.00831326658750       -2.67355176706124
C            6.58013176751151        2.01075080691865       -3.30504660666170
C            7.91229709269366        1.83820875524148       -3.56959709790617
C            8.57610358567269        0.65590126622231       -3.21943632681616
C            9.97972968590775        0.51619817821307       -3.51460939949015
C           10.73628280309437       -0.57198166011637       -3.25002278115350
C           12.12283877855368       -0.70800491118123       -3.53991525898194
S           12.86585787138220       -2.27690759347211       -3.62822647526443
C           14.41763432819415       -1.61503915789860       -4.06023305827130
C           15.62903111919638       -2.27898584658701       -4.35195404733237
N           15.83591909680734       -3.64903294320537       -4.34028496780733
C           17.05092766245753       -3.95313613248993       -4.65210780902689
C           17.55533470672582       -5.33600134609581       -4.71406935337070
S           18.07764401814829       -2.56243306143258       -4.99177108094357
C           16.73978021350279       -1.50391167535536       -4.68691564909961
C           16.66908257131925       -0.10813144188004       -4.73866249507703
C           15.49166943308723        0.52597097024587       -4.45147395987529
C           14.35217550473604       -0.22896255325907       -4.10169349639033
N           13.05371472737684        0.24648507625185       -3.77001788469531
C           12.83923346908831        1.68552177662346       -3.58390217689056
C            7.83042120195434       -0.34446744688450       -2.58329110417110
C            6.49787665465049       -0.17247784649432       -2.31850439262623
H            0.90492385675667        0.42958655960337        2.07550000258845
H            0.47677688986871        1.44832029665256        0.68036567612052
H            1.78465452176584        1.95031003024134        1.79136505361344
H            3.24791339371088        2.06597251839822       -0.08308575242672
H            1.94840075717403        1.52084991850952       -1.15016903951368
H            3.32476116089711       -0.48427198279444       -1.78897108815154
H            4.55623498941952        0.01574135126759       -0.65275836829507
H            4.20349230283183        2.56806180292515       -3.97062673812303
H            3.09104941135935        2.76140405734685       -2.64672407281562
H            1.91936187056333        0.63686215952744       -3.35986515146203
H            3.08186265707667        0.45981579530908       -4.67524964513434
H            0.19235527453832        1.97832974856815       -6.16690769810458
H            0.10596044351449        0.79640227546047       -4.83932120768572
H            1.24072873057707        0.54000406577533       -6.19749824854746
H            6.11444485190087        2.95007562689235       -3.54210436454821
H            8.46928370210988        2.62540102496114       -4.04779330916976
H           10.43714303075167        1.33886648544309       -4.03035329797445
H           10.25900046520703       -1.44176494427565       -2.83584277981514
H           16.72913050427167       -6.04109678381948       -4.80428205362117
H           18.11544410722186       -5.58272375464194       -3.81196404639814
H           18.21315656315910       -5.47086072843558       -5.57296691736991
H           17.54759243626943        0.45159426578637       -5.00855001896160
H           15.42530818207707        1.59710209069703       -4.50918853369415
H           13.75816213842011        2.16497823971474       -3.25691848676322
H           12.09342290510383        1.85993459613055       -2.81224513517740
H           12.51898165888217        2.14079999807512       -4.51817585901251
H            8.30750001121675       -1.26444791236089       -2.29853646433264
H            5.94259891942220       -0.97330662820623       -1.86415729352115
