42
 energy: -7.642912772895 gnorm: 0.000774159271 xtb: 6.5.0 (97a52f5)
C            0.91428310143653       -0.20682668567480       -0.23666783622595
O            2.30203381647095       -0.02617858600147       -0.06782771247761
C            2.83462653780102        0.96554375493109       -0.94197875409527
C            4.33609885319390        1.12156011380742       -0.78816725947375
N            4.87138829988394        2.15257934631496       -1.67892079726841
C            4.92752966224803        2.01794822874278       -3.05998128388438
O            4.61887628145022        1.05909139426834       -3.74556097201050
C            5.44433199601193        3.31780780406574       -3.51468439737075
C            5.68020118875607        3.62650360909654       -4.81911714132238
C            6.18601267722711        4.88715111081780       -5.29415527163504
C            6.36266953655526        5.10672862721160       -6.66466515596138
C            6.84071397230917        6.31348100324781       -7.12462919797735
C            7.15444705388822        7.32305120221210       -6.24081625493899
C            6.99524682736724        7.14260057121644       -4.86421990863970
N            7.31458676651882        8.16605150742557       -3.94597841271823
C            7.56583661209696        9.53773687886551       -4.38514519934032
C            7.40620435851441        7.90928511699819       -2.50978129275752
C            6.51078221818985        5.91935120417430       -4.41833505759034
N            5.63306509770064        4.12708465532192       -2.41288508580956
C            5.29096252220495        3.44587344934690       -1.35652040721060
C            5.34811734756260        3.97335055347964        0.02361339438907
H            0.57113865497068       -0.96660354500944        0.46679602460874
H            0.70426858406958       -0.53991763761579       -1.25411617421519
H            0.39029223697748        0.72907135350142       -0.03745137396841
H            2.32841436321088        1.91504729690022       -0.73491310683058
H            2.58850749530804        0.68600247030645       -1.97298579046950
H            4.83602645275504        0.17596356281838       -1.01478655386947
H            4.58943910106655        1.36672454550045        0.24618174588873
H            5.46873799652959        2.86779451974942       -5.55037101264752
H            6.11950476159073        4.32052033665121       -7.35831406374575
H            6.97173756387340        6.46842032865626       -8.18296285780580
H            7.54028837089896        8.25619386891610       -6.61020335494474
H            6.82843676613590        9.83498205973275       -5.12816993266287
H            8.56128428584336        9.61432103816788       -4.81810790211389
H            7.49546115263312       10.22968396017154       -3.54824227881538
H            7.95976662715911        6.99035882018255       -2.32770159917426
H            6.40930905598979        7.81792065459735       -2.08295399443085
H            7.92815885252935        8.72010339129639       -2.00545780228004
H            6.36569510543337        5.77063168407169       -3.36748377646434
H            5.62064870363297        5.02832893837544        0.01843446166446
H            6.08971023849762        3.43566160026778        0.61410406326583
H            4.38060890351324        3.87720589288875        0.51602928333515
