106
 energy: -17.931357319098 gnorm: 0.000737532169 xtb: 6.5.0 (97a52f5)
C            1.92245570697333       -1.55296297514264       -0.21004488957522
O            3.25646265167958       -1.19858050981944       -0.49351891249022
C            3.60247874877368        0.08906158792203        0.00705972376048
C            5.04777299300303        0.45196115997160       -0.30724277160199
O            5.38957841184605        1.73760201850542        0.19916531258309
C            6.74383457088059        2.09274340398250       -0.05904640600409
C            7.07516219920259        3.47320858074147        0.49054949237316
O            8.43167554074734        3.83332288048564        0.25120053934076
C            8.76205122905321        5.09957528291565        0.80804223874159
C           10.21480180108160        5.47440788588787        0.58756790679773
N           10.56967309934310        6.70373816264003        1.28176187444744
C            9.88492782822393        7.87508884875298        0.94932592223972
O            9.00302223296493        7.89270845314805        0.10663833078553
C           10.27294887383258        9.09379203665054        1.65422655302520
C            9.69658932842421       10.28353504871554        1.29951915452966
C            9.99824499117777       11.48706409803630        1.95115407889061
N            9.39626524364958       12.65841272528178        1.53471474850424
C            8.51347627398045       12.81840953179603        0.38529277389490
C            8.15224351162618       14.26804219777530        0.10242897637917
O            7.31475984134299       14.38456260459395       -1.04308348179317
C            6.94426688514710       15.73042397797602       -1.32465112526207
C            6.08886944093282       15.82150484374492       -2.58437365900196
O            5.74237453519996       17.14649015632522       -2.93313348657697
C           10.91342939828525       11.47131418406987        3.02280412459470
C           11.51605573034333       10.24727941124570        3.40246492507178
C           12.43756297985190       10.20063368170662        4.47711339082808
C           12.99282092026978        9.00690704865090        4.84898485218915
C           12.68881683592910        7.79303579182061        4.20950687679186
N           13.20671568239333        6.63515303906042        4.79045250622946
C           12.51807492119431        5.34746871314768        4.88837071797042
C           12.72221384066702        4.64581496851986        6.22081968248130
O           12.04184153086680        3.39545199563949        6.26575525247149
C           12.30820491764164        2.66391308894373        7.45810662821841
C           11.55146643410717        1.33970729273302        7.48452861346369
O           11.74533464012382        0.60632400787714        8.67712218613134
C           11.83210294863094        7.81886027384665        3.08290374800180
C           11.21370489939492        9.04324524193050        2.71581921610951
C           11.60344430739252        6.64636256711841        2.23238313437027
O           12.27881446862677        5.63235335106869        2.30417662680133
C           12.77133398505307       11.41189718461333        5.22387986579959
O           13.54943482668582       11.36462493576514        6.16222391941248
N           12.16133461015395       12.60518532548549        4.82051937278902
C           12.39726583122801       13.81872311083346        5.59266838054947
C           13.86655987776267       14.12172329348608        5.80938231159362
O           14.06029568620697       15.32523157029704        6.54267949141036
C           15.42063358792172       15.54169958907389        6.90200896627728
C           15.58785978831847       16.80534785751429        7.73475622022792
O           16.93976820884335       17.00177521938317        8.13487659020126
C           17.10668481977299       18.14904324795448        8.96097857620572
C           18.55132077187973       18.31724843154785        9.41220947881611
O           18.71407302969700       19.45500554481092       10.25352174553618
C           20.03854521785212       19.61371665453069       10.70708722118627
C           11.24800673289232       12.69176961429027        3.75685811702519
O           10.75565565525323       13.77470662638555        3.48145649656524
H            1.73395018327314       -2.54705730278821       -0.61784933165096
H            1.24286810920144       -0.83732783584308       -0.67514587578972
H            1.76582341767637       -1.57053097571154        0.86950313585558
H            3.43764795864365        0.09585944752317        1.09016911745093
H            2.92226419979237        0.82685408174825       -0.43251490363769
H            5.21303768684552        0.44961153997046       -1.39012639907151
H            5.72739491809377       -0.28699658703126        0.13090321236017
H            6.91239632842831        2.06347970631343       -1.14102255095616
H            7.39408738552697        1.33768019949386        0.39615615919019
H            6.89354537493646        3.50044839169098        1.57063769930631
H            6.42929765259226        4.22947311522555        0.03088927766349
H            8.53776522855644        5.07258909836722        1.88034412801880
H            8.11153333033897        5.85462323123918        0.35268289369410
H           10.42429573661646        5.59742363115561       -0.47885778592506
H           10.86390117496147        4.67199672853911        0.95152176499251
H            8.98168486013754       10.27781785228249        0.49816906603239
H            9.62775188938305       13.53352517780193        2.00307326908768
H            7.60220595804292       12.23675073835714        0.55602353902247
H            8.99972878745010       12.38629859483924       -0.49486207354348
H            9.05586678720398       14.86211030260229       -0.07413886605684
H            7.62852974617440       14.70989802117816        0.95741374147210
H            7.85732206694564       16.32377416659706       -1.44305551407948
H            6.40322652196181       16.12581598388376       -0.45867984758813
H            5.17444240987066       15.22466279923168       -2.47714558630216
H            6.63477631735458       15.39812370712229       -3.43581694053657
H            5.25185130034451       17.57982603016069       -2.20882738304566
H           13.65968415102520        9.00250451408157        5.69174371024450
H           13.85381887668466        6.74793179903788        5.56762621522852
H           12.86866203494876        4.70850209779466        4.07121956676447
H           11.45003808997924        5.50560111000333        4.71025209101728
H           12.35129139772440        5.26520819251739        7.04512145830013
H           13.78767825261235        4.46279317927287        6.39926383820716
H           12.01991029379629        3.28313423291903        8.31437494250564
H           13.38783913326907        2.49334680126489        7.52240640552436
H           11.83043148231673        0.71519408483503        6.62656309345331
H           10.47466573883740        1.52491681939321        7.39341799649563
H           12.69156770171392        0.40890964733902        8.81451964100702
H           11.88677037962430       13.71911302087051        6.55491915671060
H           11.92277597205857       14.65560853568595        5.07086980146908
H           14.39168882837808       14.21004084809063        4.85175128159262
H           14.32948242685183       13.30298722797167        6.37012879777051
H           16.01759760438073       15.60446044469213        5.98563455680089
H           15.77419442210292       14.67162980328701        7.46606961522714
H           14.96482218706076       16.74702931651921        8.63401375765592
H           15.26156104552004       17.68292595731387        7.16598140959394
H           16.44971222203851       18.04918859594688        9.83188204685682
H           16.77789269872971       19.03128227131879        8.40102131974662
H           19.21032751232307       18.42963170338816        8.54428112274391
H           18.88130727702344       17.42889160263644        9.96196444879777
H           20.08374115234698       20.50160694142102       11.33933055770302
H           20.70842337552752       19.74255176755146        9.85568876736594
H           20.33683738806216       18.74088477692237       11.28969832595875
