40
 energy: -7.588394212027 gnorm: 0.000544510586 xtb: 6.5.0 (97a52f5)
C            1.60214622771750        0.45527781296910        0.65229315874980
C            2.70971710572713        0.47170693304915        0.16215336768592
C            4.00359432565146        0.46320755924563       -0.40889005024522
N            4.50567044437610       -0.89041906270901       -0.69625583704849
C            5.69588607997910       -1.43270699085138       -0.36769671610161
C            6.55813749862394       -0.90176002410000        0.65660548264304
C            6.28876551700465       -0.25196710579269        1.88340067454109
C            4.97060205856209       -0.02922930210777        2.52784657089477
C            7.52119325354231        0.00706747768868        2.49653541404444
C            8.54349584074276       -0.50340698752149        1.69561771807333
C            9.99062084228140       -0.52700650910206        1.97771687163470
N            7.93575419034476       -1.06880989338639        0.62885494439624
B            8.67048992543702       -1.90821902132704       -0.42741140035716
F            9.33513136143150       -1.06351096602568       -1.30543069170717
F            9.54935188663931       -2.77371708551774        0.21213877432472
N            7.63324573221886       -2.73341531661806       -1.20483025802699
C            7.94490848959025       -3.72885605846707       -2.06505815039501
C            9.29949384482777       -4.22037699847777       -2.37780676733928
C            6.73575118462096       -4.16247314392782       -2.60921132101517
C            5.69079662885520       -3.40932524831939       -2.05888872513296
C            4.25319649153489       -3.59128574806131       -2.37428939247641
C            6.26896812972506       -2.48404736839772       -1.16386303701771
H            0.62809830631855        0.43749476194093        1.08524677046347
H            4.72102326794355        0.97565550382335        0.23853760095009
H            4.00158845330309        1.04314222574052       -1.34057030692680
H            3.96921400841509       -1.29274740913923       -1.45976097490096
H            4.19162822794046       -0.61306515432258        2.03772026455596
H            4.68893070296374        1.02353934065792        2.49882951985826
H            4.99827574324905       -0.33557009534899        3.57397818731923
H            7.65544959546507        0.47147774771743        3.45840501990784
H           10.27557070385674        0.28147085551135        2.65118661364867
H           10.55836687399831       -0.41940824746523        1.05321292118909
H           10.27599290245785       -1.47418298817080        2.43565584339892
H           10.03958189726616       -3.71628904811949       -1.75628758532059
H            9.54998423883186       -4.03147708743956       -3.42171355338504
H            9.37663998165220       -5.29218355706212       -2.19459638503797
H            6.62559590452422       -4.95124757821632       -3.33346038709581
H            4.07092167415776       -4.58372244156639       -2.78760577856888
H            3.91796807183813       -2.86057942027465       -3.11072291059535
H            3.63899238639047       -3.49262436059211       -1.47894548960853
