80
 energy: -12.676304632896 gnorm: 0.000619577459 xtb: 6.5.0 (97a52f5)
C            0.87842135968164       -0.16641032789800       -0.01018904193771
O            2.28509532702193       -0.08711718041547        0.01374197908754
C            2.83758624895053       -0.47997789597870        1.26613461073598
C            4.35872770951947       -0.40945244179546        1.26251219046740
O            4.90904792062041       -0.82410875718518        2.50808646326286
C            6.33222980763645       -0.80365635496565        2.51577431663758
C            6.89736167468190       -1.32974721206523        3.82810805616356
O            8.32057099783861       -1.35128595651786        3.81986939518430
C            8.86896220515179       -1.92802511875831        5.00006214112331
C           10.38749283699193       -2.01695295442442        4.93232272848582
O           10.92931241768751       -2.67471557087131        6.07260557858219
C           12.34039254483477       -2.83977960892742        5.99397057784081
C           12.86364044915029       -3.71232811523006        7.12374441827358
O           14.27033206919215       -3.93542956719376        7.01443450887963
C           14.89906689632292       -4.32221998696842        8.21912692795687
C           15.93265342015571       -3.51256695334009        8.68070239495007
C           16.60823965924363       -3.76277840653412        9.86395968352645
C           17.66927245605812       -2.85773521652254       10.27893967006240
O           18.34887353824732       -2.90634201490815       11.26815915792175
C           16.24957993037689       -4.89063728129263       10.63809831809814
O           16.94364811671679       -5.14094502078054       11.82385675855243
C           16.64643780026313       -6.37898581339219       12.46010825122275
C           17.57055622508204       -6.64363593690122       13.64080628254895
O           17.26726096254972       -7.88342027655428       14.27005759184437
C           18.15222004150008       -8.19626183939226       15.34014157488055
C           17.78032384936645       -9.51556096501455       16.00315857693142
O           18.66673966353070       -9.84969696441404       17.06536415749611
C           18.31000406746136      -11.06779761318377       17.70976635691289
C           19.27189953886516      -11.42125754236508       18.83571664295743
O           18.89447819699188      -12.62906763746247       19.48769322080603
C           19.77362769421682      -12.98338133716070       20.54959529633992
C           19.32208428400147      -14.25688619374042       21.25211298674363
O           20.19346166909014      -14.61303803313742       22.32067412273699
C           19.78135262351214      -15.78098005191977       22.99277189353309
C           15.22211728996577       -5.70610706473280       10.17068573851515
C           14.55157824092981       -5.46255426316622        8.98113305467680
C           13.55222511015548       -6.42416214399810        8.53930438139687
O           13.03761936159647       -6.51356018632209        7.45743394577774
H            0.53092633202504        0.14467616985801       -0.99637793607881
H            0.45793028449358        0.49706747626520        0.74693326894988
H            0.56288115779943       -1.19409534432119        0.17586106377557
H            2.50754041750896       -1.50134987489816        1.48578982819978
H            2.42877919076806        0.17155839109204        2.04628536744773
H            4.69256137271229        0.61369508263583        1.05803041922611
H            4.76337724092088       -1.05146502873317        0.47246713950371
H            6.66691056126327        0.22456630371795        2.34012042117960
H            6.69335433170628       -1.41378656507300        1.68059249741464
H            6.53481228088620       -2.34729623742353        4.01054922002833
H            6.56395172572169       -0.70711976583587        4.66549769168590
H            8.44234459827205       -2.92907030421438        5.12684105023953
H            8.55716063817167       -1.32650128718128        5.86091105575010
H           10.82909205606060       -1.01680620916650        4.86274779820070
H           10.68802114763575       -2.57176945884543        4.03671160714084
H           12.80868019261960       -1.84974330084771        6.02186905869927
H           12.58738516568269       -3.29345019762560        5.02778310245487
H           12.36172938242874       -4.68511382174928        7.10074178316998
H           12.65454142812212       -3.25408139764205        8.09643338089345
H           16.19688082622083       -2.65405185504933        8.09063082699710
H           17.88073521125893       -2.02435601030792        9.62070417928442
H           16.74902662676957       -7.18405177067613       11.72447789623041
H           15.60477730490723       -6.35455018151401       12.79801474155440
H           17.47919365587926       -5.84364466797726       14.38362942847802
H           18.61395581735499       -6.66571891581649       13.30751906698896
H           18.11993187932209       -7.38036884324118       16.07042751022165
H           19.17273131542892       -8.24442604705635       14.94480632403212
H           17.80116526515212      -10.32671184414473       15.26706512848465
H           16.76193558263124       -9.46251452072195       16.40349922442652
H           18.29482969060198      -11.86666286980141       16.96024907841542
H           17.29201023370267      -10.96673512493776       18.10172043212253
H           19.29594247011631      -10.61731302714656       19.57946177718843
H           20.28855387492359      -11.53887540155194       18.44499922546890
H           19.81283937647216      -12.15192518526985       21.26176856528650
H           20.78085073110575      -13.11234498682480       20.13857552862465
H           19.28630147024137      -15.08983552678700       20.54130206867461
H           18.31213504625489      -14.12752065462019       21.65661089521041
H           20.49363314487668      -15.99072760520644       23.79199260775596
H           19.76214974133736      -16.62081294792874       22.29662769085294
H           18.79042778800415      -15.62932905486830       23.42333640097172
H           14.93491366228702       -6.56997484835242       10.73952381743750
H           13.24549557518121       -7.17703693474496        9.25442485827010
