66
 energy: -10.613662816998 gnorm: 0.000989995767 xtb: 6.5.0 (97a52f5)
C            1.09600091337539       -0.11331258680431        0.22793168933187
O            2.48781573997673        0.09375935903865        0.30292010571017
C            2.94408417594706        1.10206378387387       -0.59326121132858
C            4.45903269719916        1.25061353332707       -0.55478845176157
O            4.91458206887643        2.24473015684017       -1.46608021830098
C            6.33400299133767        2.33772277133020       -1.51661378703167
C            6.79590271237478        3.37061646588013       -2.53564392168145
O            8.21457066815069        3.40689293850255       -2.64395094558888
C            8.67068852075736        4.35716943562782       -3.60002625731918
C           10.16773050724304        4.23410759567950       -3.83478104694201
O           10.63865505637620        5.18479718184394       -4.79067312941050
C           12.04062063356109        5.36404767200745       -4.78903041329738
C           12.52283662704057        6.63481332600422       -4.48973967117887
C           13.87611301426728        6.92473440289954       -4.42555784191824
C           14.29581410592150        8.27803000971630       -4.09484952202710
O           15.41195570357930        8.70378829711777       -3.96755003198115
C           14.81522924404828        5.89815105763878       -4.67979892255928
O           16.17625035844551        6.20148412285899       -4.61216942194328
C           17.06207303741019        5.14033418020393       -4.95015730569626
C           18.51590440516457        5.59081873219806       -4.92407818779081
O           19.39676260818216        4.52642886538429       -5.26490894701453
C           20.76122472239563        4.92818701733852       -5.31033632801967
C           21.67580410344450        3.76503286571981       -5.66974392926612
O           23.03991295942347        4.16470238772776       -5.74015441060774
C           23.91345257810428        3.08401405087654       -6.04823840918598
C           25.36038304662033        3.54263286445169       -6.16792335083978
O           26.23511702223414        2.46031206585985       -6.47030613302543
C           27.57913051789900        2.86350678817718       -6.59678454249724
C           14.33171179870772        4.63092978568086       -4.99537492985950
C           12.97731851583629        4.34155089882056       -5.06914627739439
C           12.57384860750019        3.00634265481892       -5.48355681841460
O           11.47473083375203        2.62300667554941       -5.78090820475068
H            0.82104228821041       -0.87987364146736        0.95397199452560
H            0.82630632311444       -0.45252136357147       -0.77380295741680
H            0.57037337606585        0.81352180995510        0.46412301802145
H            2.46128303823909        2.04856282023714       -0.32572757409216
H            2.61671336972435        0.84136547115260       -1.60587672155005
H            4.93655496996423        0.29794916191259       -0.80951989816190
H            4.79032574791193        1.52552325630551        0.45276604087670
H            6.73691889973964        1.35196381301565       -1.77388421727040
H            6.70341886027515        2.59343599347785       -0.51742936185326
H            6.43989228694127        4.36895907662835       -2.25851300940365
H            6.38029221009312        3.13477580225089       -3.52152030270208
H            8.41950866980421        5.36059740673246       -3.23817094418016
H            8.12924276320515        4.20018994551121       -4.53992319364916
H           10.40312027396504        3.23038104221209       -4.20446061242843
H           10.71766699825803        4.38074602586102       -2.89828228905703
H           11.80457821212112        7.40915626119176       -4.29062290251472
H           13.51040970970720        9.00676380564042       -3.93749350227333
H           16.80584574164510        4.77676330909689       -5.95123430470826
H           16.91185350852941        4.32127263977322       -4.23841235291941
H           18.78316604519298        5.95945187585996       -3.92746583562656
H           18.66981963264179        6.41320855887479       -5.63156000262577
H           21.03646395170437        5.34130566106251       -4.33368110560594
H           20.86264847583305        5.73142896719370       -6.04849097498859
H           21.38772775670651        3.34412521139219       -6.63940731295267
H           21.58405164751271        2.96681518076917       -4.92487491000576
H           23.58334096939370        2.62519076772496       -6.98666073481816
H           23.81963631526656        2.32736140339743       -5.26158298817308
H           25.69048143734871        4.00450849373680       -5.23094729436352
H           25.45471710397809        4.29668576780464       -6.95709139798127
H           28.18452454559340        1.98373023724144       -6.81938626171265
H           27.92114126179229        3.30960315286141       -5.66179975055742
H           27.67402605084783        3.58247016517240       -7.41180744407711
H           15.02480566060937        3.83887350138558       -5.20622509762316
H           13.35402140287849        2.25957906342761       -5.56189502451412
