108
 energy: -21.369823404686 gnorm: 0.000524902732 xtb: 6.5.0 (97a52f5)
C            4.27636918082830       -2.68662190940909       -3.67883155757003
O            5.60340229781117       -2.42760499575999       -3.28162169828869
C            6.35067327394564       -3.61790301079665       -3.04913686248474
C            7.76627942727892       -3.31458253684254       -2.57797890937794
O            8.51252545083281       -4.50303818083603       -2.33816624383709
C            9.81779586610958       -4.23368888229051       -1.84370790522601
C           10.62758487765468       -5.51008290799087       -1.64881476844587
O           11.80382730040918       -5.32830832857409       -0.88299933660167
C           12.74355973225443       -4.46802456672226       -1.48612156893858
N           12.96401554510936       -4.72359137299668       -2.89402354853058
C           12.51056030137219       -3.77012913706330       -3.81525103020428
O           11.96855196143495       -2.74038592834175       -3.44720651322868
C           12.70444162284672       -4.05381277553401       -5.23681275822518
C           12.24310859545245       -3.17168865199389       -6.19654741755605
C           12.39924103010562       -3.43706158470362       -7.53586752414779
C           13.03887541320352       -4.60012339852700       -7.98640589170127
C           13.14170874567496       -4.90503755378050       -9.38249463940478
C           12.58857803681687       -3.91991411241671      -10.34691014483148
C           13.43351179923121       -3.20459471452978      -11.20043207655771
C           12.92255974976327       -2.29065934697443      -12.09253355654279
C           11.56160579947299       -2.06694573825195      -12.15269475669033
C           10.70998556287738       -2.75961546353667      -11.31557126522545
C           11.21378129825324       -3.67441475496727      -10.42032847797293
C           13.84306169421321       -6.05925117530613       -9.80705146623681
C           13.86977995709077       -6.48138129528695      -11.20377283561866
C           12.92863785374499       -6.06689093487222      -12.15048322051478
C           13.01827262085130       -6.42262199811348      -13.47779995538692
C           14.04749469437420       -7.21999510484903      -13.93274466992958
C           14.99373942621367       -7.71645342247020      -13.00939425410141
C           16.05247063390949       -8.54679376629483      -13.44463471551393
C           16.95819799309837       -9.03366614328041      -12.52007599084402
C           16.83107348325589       -8.74327611781494      -11.18295488800658
C           15.79096331918457       -7.93725989226115      -10.70028777021223
C           15.62538071514359       -7.68914440508088       -9.29899405321706
C           16.62387613798740       -8.28001644261884       -8.37151102082411
C           16.71845898084007       -9.66464236444403       -8.19936834199385
C           17.64725750747936      -10.20425278762453       -7.34022050633021
C           18.50340371728836       -9.37998459180442       -6.63778781645139
C           18.43039815606746       -8.01068480988546       -6.79777693734346
C           17.50396943319412       -7.46385489504306       -7.65500621436030
C           14.60047458593587       -6.82295310867917       -8.84789427051007
C           14.31097527485025       -6.63413794419291       -7.42999857229194
C           14.70198716927081       -7.53811196373848       -6.43827786577211
C           14.47450202518227       -7.30306299172865       -5.10056162042773
C           13.83525141596983       -6.15638750937464       -4.67784327333715
C           13.36975584426871       -5.23413847781731       -5.64026902399202
C           13.57359745438405       -5.49465251783935       -7.02134737064799
C           13.63080401773298       -5.90142021445402       -3.24929033724189
O           14.03926127077356       -6.68764794185684       -2.41190855107735
C           14.87958754600973       -7.37775486740806      -11.63498543327689
C           16.19164090315708       -8.87819688673561      -14.86327931944109
O           17.11344892182217       -9.57244766119207      -15.25892517166656
N           15.23441713688503       -8.36018296505445      -15.74372653116127
C           15.32757176796080       -8.73997074218795      -17.13852104942273
O           14.67388670335004       -9.96364068630323      -17.41521359313968
C           14.66041436542038      -10.28751631077170      -18.79966976439753
C           16.03867398488676      -10.61630740092951      -19.35933505724209
O           15.96895626820865      -11.02942667643127      -20.71959707286269
C           17.24895751378157      -11.32854340798526      -21.26634346580005
C           17.16115880558092      -11.71814700737949      -22.73578281038152
O           18.44351126074413      -12.00448356350021      -23.28574436786380
C           18.38654412320342      -12.34146644082347      -24.65271357678676
C           14.15575971646878       -7.55822016203283      -15.35381691411185
O           13.34191320601331       -7.14428809680109      -16.16213904526362
H            3.77331870947593       -1.73433509949681       -3.85190635839124
H            3.75400882916320       -3.23151959919757       -2.89117771598468
H            4.27271928161696       -3.26893295957173       -4.60125422927896
H            6.37526854684683       -4.19931781588076       -3.97720983758813
H            5.82359294054713       -4.21896143190220       -2.30012056714103
H            7.73869997351071       -2.72785107625995       -1.65324332966174
H            8.29651878276001       -2.71749772992720       -3.32828031273901
H            9.71883896868542       -3.70011535845810       -0.89226730334197
H           10.30911934938696       -3.56470654218474       -2.55723452270311
H           10.90407984384274       -5.95619029799627       -2.61059472014640
H           10.02040219628253       -6.25284750692104       -1.11833994799427
H           13.69078831755099       -4.59072847711704       -0.95115280298514
H           12.40976816505222       -3.43472698468325       -1.34779949047326
H           11.74609022326770       -2.27365073559443       -5.87138279591342
H           12.02229758204328       -2.73553271345506       -8.25774703729657
H           14.49372501897364       -3.38264321019373      -11.15053472093171
H           13.58581102349865       -1.74897535355980      -12.74655433493570
H           11.16397639012758       -1.35115814994771      -12.85333064860675
H            9.64799586141041       -2.58384330842122      -11.36469649615205
H           10.55136164547155       -4.22220098660525       -9.77252427711575
H           12.09898522632973       -5.46281123397753      -11.83805298363961
H           12.28898207602408       -6.07158863287439      -14.18790896179087
H           17.76303824474137       -9.65732897273042      -12.87000793146091
H           17.54800014339769       -9.14228815911252      -10.48855770847251
H           16.04435651299652      -10.30434037973889       -8.74243008101318
H           17.70628642321722      -11.27286405605894       -7.21479218719721
H           19.22959529778930       -9.80555433844752       -5.96483566085805
H           19.09991744093820       -7.36889963553875       -6.24923023974134
H           17.44387720972052       -6.39697589432696       -7.78324602723518
H           15.18267097982369       -8.45437724651305       -6.72144653995188
H           14.80455674014000       -8.00963821780333       -4.35818541974766
H           16.38452692542677       -8.83373432541344      -17.40236480146039
H           14.87821125375114       -7.95234683448809      -17.75163462904665
H           14.19927733688349       -9.46101367757594      -19.35163246423449
H           13.99622831407713      -11.15119085666590      -18.91838019934715
H           16.50148711557816      -11.42019062200700      -18.77642834683418
H           16.70162901779962       -9.74708494815942      -19.30551020974599
H           17.69433454690292      -12.14205675579062      -20.68324401072982
H           17.89261371817192      -10.45004539074798      -21.14727291673380
H           16.70796749516996      -10.90642740798151      -23.31533744675816
H           16.52549997653938      -12.60205807067831      -22.85731234720496
H           19.39931497807492      -12.54662742590158      -25.00236023398667
H           17.97091640760953      -11.50883103564371      -25.22221947170574
H           17.77070449483781      -13.23170499917120      -24.78910056484105
