52
 energy: -8.550839032703 gnorm: 0.000391207726 xtb: 6.5.0 (97a52f5)
C            0.99023317243404        0.55437481399180        0.63784322412655
O            2.39286353504791        0.45281003000702        0.55494317760825
C            2.91881188199963       -0.60387659654349        1.35158563162284
C            4.43438726672715       -0.69667039013586        1.23765009906063
O            4.95878861021658       -1.76221296492938        2.02209105719032
C            6.36975250192118       -1.89171568323404        1.90030462425814
C            6.89413532753577       -3.06998993048199        2.70552097794961
O            8.30219381992986       -3.23998966588521        2.53773231587995
C            8.95105502946042       -3.89055327018983        3.60972891791047
C           10.01400451721429       -3.21752949440356        4.20443894743290
C           10.71378274876951       -3.72976032710923        5.28449942974738
C           11.80995333781719       -2.95831837609834        5.85036001425095
O           12.53049060670831       -3.24752660212379        6.76664712896550
C           10.34865385578188       -4.99206542046794        5.80674393907863
O           11.06123313529928       -5.50015449081955        6.89467138609541
C           10.79650447313724       -6.85878295919510        7.22650630581899
C           11.77433195930798       -7.37906461065820        8.27082253832650
O           11.53331865494869       -8.74738006647449        8.57770755917652
C           12.47326137947881       -9.28073478965844        9.50348696654931
C           12.19885500761735      -10.74879465823480        9.80059030619245
O           13.14817866154286      -11.29091509550516       10.71296763758738
C           12.91826116388375      -12.65157105276552       10.99670667502699
C            9.29411193825056       -5.67196861572129        5.20313199127705
C            8.59875180093415       -5.16416048619519        4.11544123607096
C            7.56996757719858       -5.99159877571296        3.50179230237205
O            7.05842869098811       -5.85489095716209        2.42358289092022
H            0.66561593185672        1.37704275823907       -0.00101090221015
H            0.69523858636672        0.75877108188674        1.66816124413769
H            0.53173296210321       -0.37368023740044        0.29293613234285
H            2.45704264029094       -1.54394848735647        1.02972044356515
H            2.62572423022773       -0.43287605564007        2.39338101383255
H            4.89876210156927        0.23909192985016        1.56784482926629
H            4.72454827388965       -0.85775125888039        0.19348115989561
H            6.83621256381135       -0.95952241039905        2.23743397301219
H            6.61744252437498       -2.02065545463997        0.84083474333409
H            6.39949217283178       -3.99143682102461        2.38032035746518
H            6.67950970798835       -2.93596691902752        3.77143802443134
H           10.28370440361387       -2.25685324238034        3.80504947766633
H           12.01676817433602       -1.99783245963511        5.39486834744969
H           10.87444277510330       -7.46259791761547        6.31579406041203
H            9.76974781778105       -6.93274015975205        7.60101727988046
H           11.69445555516381       -6.79445339129521        9.19403022834044
H           12.80261339392834       -7.27919892704879        7.90588992970866
H           12.42730638137374       -8.69064318349717       10.42542778128140
H           13.47895034934120       -9.16180252202327        9.08538403172081
H           12.23346145484818      -11.33461345528362        8.87528950953413
H           11.19743910275493      -10.86882906386769       10.22867569884193
H           13.68527493520194      -12.99312384579885       11.69336389708295
H           12.97910343555781      -13.23608072424648       10.07739448839312
H           11.93506842913760      -12.77228795415375       11.45413679654217
H            9.00414092057010       -6.63495382832174        5.57867867370108
H            7.23816052182502       -6.85927701498286        4.05817149989481
