38
 energy: -6.487306715440 gnorm: 0.000674179434 xtb: 6.5.0 (97a52f5)
C            1.12788591336735       -0.85731682517737       -0.24449889493915
O            2.46270996588369       -0.43511953952207       -0.08417541754279
C            2.88994135945828       -0.45263371530475        1.27274638761139
C            4.32656523297880        0.02668833247726        1.40975632996908
O            4.76413941662226        0.01050723088487        2.76892065716668
C            6.16075666235882       -0.12298295343633        2.93149417455805
C            6.61411883558012       -1.22239474408866        3.65376886201466
C            7.96029782290223       -1.48262755540970        3.84954417338279
C            8.35356833433442       -2.65861515820224        4.61061601371744
O            9.46039116536516       -3.02052560049996        4.90375799295479
C            8.92039516622240       -0.59936731503309        3.30344782117768
O           10.27237084763288       -0.88292214759189        3.50010965097386
C           11.18995856652016        0.09958720929594        3.03424652081219
C           12.62167928029525       -0.26541918162172        3.40108803322654
O           13.54900534177385        0.71380865438144        2.94636045457202
C           14.87989408172905        0.41111553570022        3.29504255695579
C            8.46605242677033        0.51125823912879        2.59738638052156
C            7.11795248522158        0.77820911634666        2.40883559359785
C            6.73948199825257        2.00270219806323        1.72028765159230
O            5.64631808171621        2.49125153115903        1.62795311418065
H            0.87979523362239       -0.81592500375780       -1.30602614906969
H            0.46256883421920       -0.19291618128132        0.30899652986992
H            1.01972124676163       -1.88240901925521        0.11319091329102
H            2.79056610410605       -1.47478570599772        1.65561310963191
H            2.21923805704178        0.18698265656337        1.85803678568154
H            4.41709439550058        1.05255062714856        1.03577188502342
H            4.99961337651900       -0.60319257721231        0.81738751538441
H            5.87885004130533       -1.89377257688264        4.05852127609787
H            7.55672608051094       -3.29841933178218        4.96943508933245
H           10.92578085788978        1.06476358027369        3.48008539912836
H           11.09041185466789        0.18244524265005        1.94644131150146
H           12.89152911566112       -1.23167210048884        2.96023434968660
H           12.72056589391118       -0.36022071062134        4.48835511749129
H           15.52549551538296        1.19786578161580        2.90197432505722
H           15.16753097411419       -0.54585460082752        2.85704549344447
H           14.97619399827606        0.37255814078909        4.38121312421990
H            9.17726326958462        1.20135698174448        2.18464770451668
H            7.53197216594434        2.56830148577214        1.24632816321160
