36
 energy: -6.059786827220 gnorm: 0.000810967610 xtb: 6.5.0 (97a52f5)
C            1.35317319313883       -0.63667671636025        0.43091515539122
O            2.54750032260046        0.10255533458284        0.31766557545891
C            3.39991585141407       -0.04682057206727        1.44856742136420
C            4.65875314305578        0.80076245397805        1.32141996333730
O            5.51348216455484        0.64882633851195        2.44815817236791
C            6.64989950718622        1.47745793821366        2.44787255855115
C            7.46044120157023        1.46103594830844        3.58683819695932
C            8.58113272928703        2.24445928961203        3.67346842669026
C            8.95703530267754        3.08121469631166        2.62099170157211
O           10.12449661349498        3.87919209221091        2.72145045441499
C           11.25717152819633        3.33881945767463        2.03492091418794
C           11.95547566769831        2.24323507763973        2.82755337395935
O           13.11049854147574        1.75755540381446        2.15049103126979
C           13.79942874455114        0.77233903463096        2.88548385844149
C            8.14443810748071        3.11435649112746        1.46850263472662
C            8.45897179682354        4.00014606181562        0.36314808428439
O            7.85909455197913        4.05911267261573       -0.67840704345558
C            7.01631867267006        2.31213926313215        1.40024962208216
H            0.76568566807388       -0.48735620981542       -0.47576361749904
H            0.78239596985550       -0.28599309380760        1.29141888898398
H            1.58296224845645       -1.69699276065266        0.54099620131253
H            3.66276696089404       -1.10573126438892        1.54730039955425
H            2.84052916880102        0.23760092794647        2.34655786967948
H            4.38828745500127        1.85808707957699        1.22980497289746
H            5.21531085675623        0.51305038794989        0.42313868959285
H            7.17734559228530        0.81719779315725        4.40063522261295
H            9.19179411896714        2.23001013556145        4.55863938564144
H           11.94836092337432        4.16715946384053        1.84567374640196
H           10.93374558796246        2.96185035440867        1.05927451223976
H           11.27738369979952        1.40060452051495        2.99880451248490
H           12.26248770413303        2.62345675951369        3.80791273892763
H           14.66970904213241        0.45559385420901        2.30935204739447
H           13.14758123006637       -0.08538277134913        3.05552553315841
H           14.13000022814328        1.18616395871510        3.83885915107052
H            9.29008277889637        4.68208179441412        0.48144005887400
H            6.42260312655545        2.35925880445647        0.50722958505924
