58
 energy: -10.817792505787 gnorm: 0.000559036119 xtb: 6.5.0 (97a52f5)
C            0.75853715325356       -1.72408059006217        0.08051936282407
C            2.02817951125593       -1.40708636100268        0.23652090998293
C            2.79486001229473       -1.53622848178920        1.52475752654420
C            2.53230879106261       -2.86164390079971        2.29439174403749
N            2.18011490521490       -2.57790220143020        3.71192906940135
C            3.27707888898912       -1.82874842357991        4.40263601439729
C            3.53885640908972       -0.48580421018857        3.69315888464717
C            2.54697034166786       -0.34718292481273        2.51131480901107
C            1.11038620643482       -0.42609922155898        3.08354107779021
C            0.88782511530106       -1.81258291290956        3.73629086298717
C            0.24158837716435       -1.77234101492963        5.14748176210513
O           -1.18024983805848       -1.53791263321332        5.07978046409363
C           -1.55812241376760       -0.19680594448376        4.77807773667688
C           -3.03163566839142        0.03498369683326        4.91659644324252
C           -3.53758586537012        1.31957584435725        5.03745594256255
C           -4.89783538947450        1.53048611080353        5.13621543793494
C           -5.76704606531074        0.45924812510352        5.11059971131322
C           -5.27424060046545       -0.82305141820023        4.98444106163971
C           -3.91367622811308       -1.03076686140302        4.88526288636663
C            0.50840093643234       -3.04404969437341        5.92051957271849
C            1.37346286026761       -3.06232674095456        6.97228251911113
C            1.65809419682747       -4.26005483834458        7.62172449218153
N            1.16439135624891       -5.42601329479306        7.30562273390753
C            0.28448672832618       -5.44147260214412        6.27068656849458
C           -0.29283362535722       -6.67143439166208        5.87821649589240
C           -1.19971155359994       -6.74400254453891        4.86899000681469
C           -1.61314455512052       -5.58097952650235        4.17860306025149
O           -2.55166839929494       -5.62868782327731        3.16436053813953
C           -1.05785808195640       -4.37274813637255        4.54397290236627
C           -0.09499797307778       -4.27242594211110        5.56250115393263
H            0.25532673432033       -1.58903658984749       -0.85727830697120
H            0.17541116672746       -2.12920335487124        0.88157933219938
H            2.55565695866953       -0.97754081898031       -0.60052878094204
H            3.86884219410348       -1.51582372110537        1.27344662306820
H            3.40667973622862       -3.51982008307152        2.27783059707642
H            1.72113311065328       -3.42892925609637        1.83238174960412
H            4.17023210800420       -2.46162236162402        4.41423468948116
H            2.99584080863737       -1.67774228824774        5.44747095699146
H            4.57138665771643       -0.43292979579925        3.32844697794240
H            3.41955718637860        0.35331154654822        4.38868765537031
H            2.69442261150282        0.60752812886179        1.98003699544598
H            0.37219168318500       -0.22646450780800        2.29963985071854
H            0.97948164392591        0.35646809083878        3.83716442089291
H            0.20108537570949       -2.39326659343771        3.10726825511894
H            0.67672081639038       -0.93622945445436        5.71075097439427
H           -1.25770326329675        0.02368820266941        3.75091826367009
H           -1.00884402010229        0.47657067029710        5.44412550046332
H           -2.85719078560928        2.15388768566970        5.05061759775722
H           -5.28161035131471        2.53317878796013        5.23078818122606
H           -6.82948314208052        0.62396688802829        5.18705224056720
H           -5.95058604553170       -1.66186545492964        4.96231048652664
H           -3.51889612228095       -2.02717915707737        4.78616909783406
H            1.83454863072506       -2.14797120268731        7.30396208744873
H            2.34911077346534       -4.24504182356751        8.45086207845937
H            0.00474896530405       -7.56077230103821        6.40545055615110
H           -1.62469082167368       -7.69161079290379        4.59013799718851
H           -2.84667432486194       -6.55105819932297        3.02762058157316
H           -1.40868381738561       -3.48462338565071        4.05579158938807
