54
 energy: -10.985651991306 gnorm: 0.000533533181 xtb: 6.5.0 (97a52f5)
C            1.01566293062570       -0.56363493377452       -0.03751994915048
O            2.42166457754945       -0.49414365361896        0.04122827718563
C            2.89399230989846       -0.46990463164828        1.38343587822991
C            4.39642854709223       -0.39353844390128        1.44885396451402
N            4.92035585135373        0.82531969396941        1.45129970835066
C            6.23076721946364        0.87007931333892        1.47317336691764
C            7.02791184847389       -0.26026864469733        1.49500421501369
C            8.50962173360018       -0.18820166573065        1.51130733387652
C            9.18806134171120        0.35314167632886        2.62920697959776
C            8.48057170508662        0.83030889977639        3.76051387589084
C            9.13202904470750        1.35539663033501        4.83135270588408
C           10.53082929987532        1.43427460838923        4.83852179212104
C           11.24824444406718        0.97900328207065        3.77802124422307
C           10.61036850669665        0.41726853070944        2.64437074906411
C           11.35874263166918       -0.06134759388256        1.54305200106174
C           12.84117142103210        0.00823784854197        1.55614034979532
C           13.61133886536872       -0.76452434526756        2.40671294729381
N           14.92171774912272       -0.72076764685311        2.42896161628404
C           15.47366475964682        0.12603264879427        1.56931531924290
C           16.97858349855434        0.17045296459893        1.55311095276591
O           17.52462556742303       -0.65219445355495        0.52791402260328
C           18.93318067284800       -0.60306542492688        0.48784339932370
N           14.85722993845743        0.91789091357085        0.70212035160060
C           13.54800127548695        0.84551248421162        0.71181145901910
C           10.68055537099154       -0.60440598246383        0.42633513115536
C           11.39092321266901       -1.10937929864554       -0.69087480819097
C           10.74051690353551       -1.62356942758469       -1.76752984952106
C            9.34031979630768       -1.66310269993212       -1.79426150006542
C            8.62121841666562       -1.19768981624039       -0.73928725151609
C            9.25833463690768       -0.66454629234883        0.40879876704445
C            6.34807489302186       -1.46504403441254        1.49266461525513
N            5.04007076816126       -1.55328105387628        1.46770106570370
H            0.72516270527237       -0.58175532434037       -1.08887766653770
H            0.57363718701694        0.31085702371664        0.44220753304802
H            0.66122349460203       -1.47378047890957        0.44853277096104
H            2.54480133475916       -1.37534027370686        1.88962293522308
H            2.45426146874019        0.39505171474368        1.88986480934364
H            6.69833199302887        1.84224524064813        1.46363607834432
H            7.40685518174883        0.76941019241952        3.76537294937368
H            8.57388545787422        1.71488681150806        5.68020695165795
H           11.03634879437477        1.85599735265701        5.69169270879339
H           12.32169265000098        1.04425459697494        3.79031997974250
H           13.12176121690566       -1.44851556335919        3.08220539546422
H           17.37151742270069       -0.17140947340810        2.51579115620073
H           17.31838346167975        1.19821830955493        1.39176174096183
H           19.28234804501289       -1.24876661691911       -0.31903950163387
H           19.34344558287200       -0.95704581932621        1.43468299057178
H           19.26356632766526        0.41921757220827        0.29811483741856
H           13.00665009497786        1.47915436750770        0.02682348141793
H           12.46606514543466       -1.08399641820134       -0.67686594550466
H           11.30041810401679       -2.00154949027964       -2.60713560001218
H            8.83507531031521       -2.06576583168000       -2.65675039470513
H            7.54659543634337       -1.22698567204344       -0.77048087865059
H            6.91173384658551       -2.38463167103089        1.51540493795164
