62
 energy: -11.990047659741 gnorm: 0.000683461910 xtb: 6.5.0 (97a52f5)
C            1.65834319882012       -0.64727159936156       -0.26151309814832
O            2.11657237078247        0.65357434037156       -0.06213293445661
N            2.60736181196187        0.78344460530146        1.25886530612795
C            1.76623120930786        1.53079664563085        2.17872852213215
C            3.81416151161565        0.18331077542311        1.62836008097034
O            4.40238595577690       -0.52548172770890        0.83039022624743
C            4.33658543371925        0.39950145515702        3.00136300609711
C            4.75197538454866        1.65757883040718        3.42063602601939
C            5.24864275306329        1.84167192364889        4.68843058018720
C            5.35663835105420        0.77406725265065        5.58263419821990
C            5.88919450390908        1.00774129033290        6.91529234813037
C            6.17649819227973        0.05486231252347        7.81695560170768
C            6.71200528032140        0.28851983668191        9.14769095094901
C            7.12571629206950       -0.79679420634793        9.92365004247687
C            7.64458052246973       -0.61315653813853       11.18201535373538
C            7.76913040786331        0.66470600331510       11.73196507616627
C            8.33427461903422        0.82159117429279       13.06167876524029
C            8.36499495683941        1.96585645675205       13.76401879054133
C            8.95314684495566        2.12367734734319       15.08468807910699
C            8.71656448581767        3.29374615413162       15.80958392315554
C            9.26433227288773        3.47714641199628       17.05636244226423
C           10.06791933898162        2.49907848341282       17.62707188416244
C           10.67237227015113        2.72217549393910       18.96433356123122
O           11.41751083309758        3.66405332710661       19.17104676154061
N           10.37789442020601        1.83794318254564       20.00598049548746
C            9.48234637254846        0.70009595765282       19.87524694247195
O           10.95991247719974        2.01702727630383       21.28366344018714
C           12.31933697204683        1.71601167262452       21.22139275040077
C           10.32487760576310        1.33920342472572       16.90555548004321
C            9.77553087063016        1.15204947766403       15.65973626308358
C            7.35042551664124        1.75033435325539       10.95866973545373
C            6.83428014498158        1.56674379525352        9.69816029902863
C            4.94327694658818       -0.48775200136127        5.14877213904207
C            4.44604251726520       -0.66991506566123        3.88044299880095
H            1.26271267536972       -0.73617435090378       -1.27430801601490
H            0.87414250441283       -0.87291195549730        0.46226398375383
H            2.49246006495408       -1.33834802472857       -0.13004145674299
H            0.80811748862852        1.73122279738061        1.70631524243888
H            2.23481046236062        2.47789841892420        2.43288462102623
H            1.59898360948259        0.95712197168935        3.08717623458811
H            4.69104452502818        2.48421544846024        2.73401743805576
H            5.56752472810549        2.82085763299284        5.00200174855994
H            6.08055226141246        2.03295343444539        7.17263515506260
H            6.02549314951522       -0.97317634634921        7.54440510744888
H            7.03850881302612       -1.79070331779221        9.51958883632285
H            7.96067503557522       -1.46374486416674       11.76106457368068
H            8.74167439790482       -0.06586196908203       13.50985516989255
H            7.90891806554658        2.84211560535483       13.34185534501536
H            8.09307200422386        4.05855175419072       15.37942173509067
H            9.08115276339576        4.38432478269461       17.60616688696323
H            8.62862980525701        0.95672202082236       19.25271579707204
H            9.12421973373976        0.41241556334624       20.86023537096775
H           10.00910656727678       -0.14321465550717       19.43640704177901
H           12.75638952365374        1.82148889782494       22.21552834985194
H           12.80244317979749        2.41011353472053       20.53159291230176
H           12.45021396102739        0.69242420435162       20.86773628254694
H           10.97534588560473        0.59366073482954       17.32906978190920
H           10.00144189527520        0.25387187404558       15.11356522635495
H            7.44356527315021        2.74796000249601       11.34832660987674
H            6.51299952005657        2.42237194426369        9.13213727117503
H            5.00624467695317       -1.32936173273128        5.81465393052267
H            4.13685478408908       -1.64680152793771        3.55028278268858
