26
 energy: -4.909487988131 gnorm: 0.000854135218 xtb: 6.5.0 (97a52f5)
C            1.65530890387611       -0.30927347789739        0.41149123022851
O            2.98163598346645       -0.18659389415315        0.03025307042272
O            3.64490693088923        0.90430767946693        0.81045627326507
C            3.77917852040928        2.04555778180952        0.01528865614850
C            4.41714518114510        3.18028350505461        0.74182955597099
N            3.87883796638149        4.38699987153808        0.89647427044535
O            4.72456325847854        5.14594966356233        1.60855671657874
C            5.83516558761799        4.39298014021870        1.91128319090906
C            6.97811573986608        4.88167554207770        2.68289997201993
C            6.96641855833926        6.18610545534075        3.16361578572500
C            8.02580081439234        6.67671902723799        3.89342799598087
C            9.11582767124369        5.87180941056009        4.15566890517751
C            9.14236443151823        4.57435078438359        3.68614516800614
C            8.08353542363951        4.08380379532506        2.95705660538099
C            5.65511142018963        3.13464154267985        1.36357848793720
Br           6.76565110909490        1.61190501662175        1.38765067708128
H            1.19867181591832       -1.13000709697587       -0.14296839506938
H            1.13162102203894        0.62217267642882        0.19528260295739
H            1.61800524715501       -0.51384868808573        1.48234972360254
H            2.78218812868472        2.32821845686080       -0.33481699882067
H            4.37440488448483        1.76219780847518       -0.85910010215559
H            6.11062251571850        6.80505487983937        2.95381412458867
H            8.00414951826911        7.69008102817670        4.25994799393306
H            9.94560837791215        6.25578621056001        4.72602848053735
H            9.99267576136215        3.94462259968813        3.89117792875356
H            8.10235522790958        3.07220028120749        2.59125808039372
