26
 energy: -4.909330786042 gnorm: 0.000899908627 xtb: 6.5.0 (97a52f5)
C            1.31152879704104        0.20936226146332       -0.36590481321327
O            2.52110268031388       -0.46425215289989       -0.35518693757295
O            2.92638947840423       -0.77658842169122        1.04966543533014
C            3.98804713675484        0.04821123029764        1.43289850190908
C            4.41860491620546       -0.18725545310090        2.84077520639519
N            4.07139493525296        0.57782199634052        3.86831240287036
O            4.57937474316469        0.05034793294989        4.98936554559692
C            5.25692943512935       -1.09774279377606        4.66151625385361
C            5.93518042879114       -1.94273277270310        5.64723420513984
C            5.91913995566202       -1.56610132104541        6.98520630007376
C            6.54024741380253       -2.33691373953956        7.94240466080967
C            7.18953677388084       -3.49929298805268        7.57919678470985
C            7.21502077530673       -3.88819534259860        6.25541437761510
C            6.59434320920829       -3.11721927951116        5.29938830712059
C            5.16497232696269       -1.27427476266397        3.28701833354821
Cl           5.81255256393078       -2.53722041443385        2.26569755765610
H            1.00879483229531        0.38249303184555       -1.39961465517859
H            1.42577676517623        1.15944135711752        0.15591148221263
H            0.56894402045085       -0.40506043309245        0.14408442663928
H            3.66915966255460        1.08563544100767        1.29607211213138
H            4.81168137717267       -0.14717307178527        0.73856120816986
H            5.40809139238932       -0.65852595399333        7.25880678276778
H            6.51964520413703       -2.03283466910150        8.97626819347670
H            7.67682211807384       -4.10288575983795        8.32750719381156
H            7.72150645922474       -4.79592684731839        5.97011689410736
H            6.61457259871094       -3.41835707387963        4.26807424002061
