51
 energy: -9.367896763444 gnorm: 0.000860990900 xtb: 6.5.0 (97a52f5)
C            1.71096556334632       -0.73191383070605        0.14952743890795
O            2.49228686299695        0.39269419526347        0.37341763878904
B            2.99354027806784        1.16326348907202       -0.80075518219805
O            2.76497421538952        0.45106746578945       -2.08020616991859
C            3.25075878570937        1.14715560604722       -3.17806166519897
N            2.29001081438840        2.53375330326533       -0.85626201455018
C            0.99272911746250        2.74695565775351       -1.16975665368660
C           -0.00344009573753        1.73319150128583       -1.56329585950377
C            0.77549826590557        4.12483724551156       -1.04172221206730
C            1.96529060130635        4.74664574301923       -0.66541807403060
C            2.14633404705347        6.20333160142611       -0.45341875084052
C            2.95273586582072        3.73243059447768       -0.55069040496980
C            4.32934253211750        3.82581896749365       -0.26604168052530
C            4.97426933548789        5.12540669472960        0.04693495492653
C            5.63172173363903        5.85722732110202       -0.94632657917125
C            6.23065991328596        7.06606820430494       -0.64944398576906
C            6.18462152582950        7.56621289689220        0.63712805609752
I            7.09363173376177        9.39630850547877        1.08092282701422
C            5.53841394119087        6.85809959230260        1.63134263103533
C            4.93786339507512        5.64797014660619        1.34318877518994
C            5.06860870726958        2.62883557330377       -0.32105828331573
C            6.45140354003887        2.37843944780392       -0.11602824124637
C            7.50247669490334        3.37031121068551        0.21595402977728
C            6.65752847985441        1.01121945972760       -0.30311571887798
C            5.43663602327789        0.39819186276227       -0.61521955839756
C            5.18924742482881       -1.03950212528588       -0.83161820730541
N            4.50794189037891        1.37858442274093       -0.61332996369889
H            1.80443059363023       -1.41040860319955        0.99906033019368
H            2.04433296829744       -1.23760765143663       -0.75742089048880
H            0.66597135330862       -0.44183728220871        0.04121666010945
H            3.06590793188657        0.56806446171875       -4.08415616369938
H            4.32335722696169        1.30958332881659       -3.06298830999543
H            2.74551321120042        2.11113138147287       -3.25331131259439
H            0.48901693895238        0.83378665330603       -1.93191804169126
H           -0.64855015390237        2.10909691943496       -2.35801647488464
H           -0.63330254529232        1.45931399154936       -0.71679904910066
H           -0.16022080782119        4.62527458830663       -1.22251594570550
H            1.22960041930457        6.74935240004067       -0.67869324154248
H            2.93440024722322        6.59631893213313       -1.09634300492837
H            2.41584024020617        6.41546451462937        0.58151002707229
H            5.66371553613308        5.46461915289840       -1.94781427263625
H            6.73968941944681        7.63001713580091       -1.41569023361759
H            5.50904507849320        7.26203180974409        2.63151234179623
H            4.43512803218043        5.09170360257080        2.11512067833494
H            7.20716570619982        3.98199660047224        1.06873820421054
H            7.69078041358948        4.03370779145202       -0.62830995167753
H            8.44084215383515        2.87652899238902        0.47042560280527
H            7.60211541852018        0.50348028410601       -0.21074205829608
H            6.07235556573017       -1.53448385542584       -1.23598659801498
H            4.92126478632907       -1.53010251733288        0.10411302725987
H            4.37026907293799       -1.18409738409266       -1.53533846937567
