75
 energy: -15.971048115002 gnorm: 0.000306147572 xtb: 6.5.0 (97a52f5)
C            1.05884654334531       -0.12853435777471       -0.30480636663395
O            2.30371365099993        0.47343958320344       -0.09348689723162
Si           3.01408856007692        1.44397365597642       -1.28636812687713
C            2.28520853718094        0.74146490839569       -2.86826453892618
C            1.50823831567366        1.48295242768342       -3.76788288920060
C            0.97121642737237        2.76615395341508       -3.46470588088906
C            0.23923420376429        3.46329559715310       -4.36844769782545
C           -0.02211759082803        2.92831402229598       -5.64265466563542
C            0.43726591721215        1.69629383618862       -5.97351393307356
C            1.19712111456031        0.92740639599187       -5.04839871439265
C            1.62571492384851       -0.35740637328301       -5.36400990218700
C            2.33169528458414       -1.12761694958121       -4.44717078764705
C            2.75584413544964       -2.44902474777537       -4.75994961461829
C            3.44732363076996       -3.19028187247376       -3.85898924555660
C            3.75284769329494       -2.66437787604986       -2.59039312134595
C            3.36610583495065       -1.40899559503929       -2.25458335688722
C            2.65027389843553       -0.57854712454011       -3.16676536242619
C            2.68589667124989        3.27668819071261       -0.96644387173350
C            3.29968265686707        4.20152401144935       -1.82500100592191
C            4.25625793806948        3.82665332457024       -2.80862794002845
C            4.81029404505098        4.73005904847075       -3.65419066142227
C            4.45557873097706        6.08841591136199       -3.57875726707478
C            3.55821168271886        6.50715804817312       -2.65290870929801
C            2.95594401208002        5.58689262743131       -1.75002307042187
C            2.03524801368719        6.01254321986044       -0.80233916332163
C            1.44551997208351        5.11539650090097        0.07863131174616
C            0.51616546195086        5.56441209443784        1.05818916403899
C           -0.05363914798549        4.69576922161701        1.92846638929745
C            0.27119099736247        3.32945448227019        1.87454691529624
C            1.14913364253259        2.86644786759575        0.95081321398335
C            1.77535083755383        3.72491042511104        0.00350821624303
C            4.86839163509201        1.16453449738620       -1.13083000586216
C            5.72436396146803        0.80367604919751       -2.18584433952987
C            5.31665643724290        0.73481196545291       -3.55112368586881
C            6.17611487817588        0.38789930137090       -4.54051690082572
C            7.51633402316183        0.08152146450857       -4.24916766241479
C            7.96452716640625        0.13794271062679       -2.97150162339542
C            7.09551438606503        0.50546875955715       -1.90651822229980
C            7.56856437942589        0.58816224283736       -0.60248346457606
C            6.73867838190669        0.97771940607787        0.44073969794872
C            7.23069633939394        1.08955485925613        1.77124489408440
C            6.42172226440664        1.49501248044220        2.78101253628141
C            5.07644457703490        1.81597658781951        2.52543692995108
C            4.57088852982747        1.71479305327085        1.27124421857483
C            5.36818726347538        1.28267748813339        0.17249639760099
H            0.63109951058954       -0.42557282627132        0.65496521655836
H            1.17397055238431       -1.01585329831254       -0.92922501441343
H            0.38496134141292        0.57341950299130       -0.80078560541574
H            1.12878539746453        3.17678509480393       -2.48729577734512
H           -0.15195399417627        4.43402686878660       -4.11075162841125
H           -0.60042994848624        3.49835890998976       -6.35129945985575
H            0.22456929357789        1.27931672887487       -6.94291042244490
H            1.38988799413823       -0.77018669008057       -6.32820092762040
H            2.52014573618250       -2.85298467015868       -5.72948217303802
H            3.76423796997667       -4.18924785181428       -4.11041328755009
H            4.29807172612733       -3.26749197778816       -1.88289117527862
H            3.59720081390675       -1.02200527882538       -1.27868385888646
H            4.55485834963509        2.80091069486427       -2.86142674934725
H            5.53240159026203        4.40952891007579       -4.38732558618542
H            4.90447547741473        6.79536134867646       -4.25720209866865
H            3.28785295224278        7.54724539872180       -2.59024491076125
H            1.77937200401143        7.05519566821919       -0.74537406655091
H            0.27329209149114        6.61235968710699        1.10001850941948
H           -0.75438238409394        5.04907795180248        2.66723171569799
H           -0.18203973244219        2.64879065145952        2.57679782992783
H            1.39319708306656        1.82479611247754        0.93971814579685
H            4.30017493139102        0.96276240560697       -3.80715091444079
H            5.83216900717420        0.34273696898992       -5.56104351880553
H            8.18610170584844       -0.19547679069121       -5.04685232098449
H            8.99203903606691       -0.09099326705272       -2.74624424438978
H            8.60006276988221        0.36277355181749       -0.39990580188240
H            8.26228657663585        0.85005867814697        1.96426302696523
H            6.80749286877490        1.57781959090100        3.78396670602937
H            4.44654684875646        2.14699662074399        3.33498243090324
H            3.54723161258507        1.97851598221146        1.08939477152677
