56
 energy: -12.164898547081 gnorm: 0.000502261083 xtb: 6.5.0 (97a52f5)
C            0.81450941373187       -0.51485136865626        0.29688842163294
O            2.22497248454458       -0.44068170891508        0.36089759346627
C            2.91836229731704       -0.98787419387942       -0.71557801437052
C            2.46785406339291       -0.99226652514346       -2.04999519377404
C            1.25254913843882       -0.25447373515230       -2.45464800550481
C            0.11231158913594       -0.96304681772824       -2.87587752377961
O            0.17788168322192       -2.36255513112034       -2.88867676264069
C           -0.18891654836970       -2.99308657619720       -4.10972122907129
C           -1.08848571999918       -0.24103032712196       -3.24845012355136
C           -2.28157341719905       -0.89300486539002       -3.52696667569357
C           -3.41673999502052       -0.19089663961427       -3.89417958869987
C           -3.39728834484407        1.17867054714064       -3.97595397276462
C           -2.23242378515667        1.89341920459473       -3.66528818720090
C           -2.18271792776331        3.31145970284754       -3.69861654396506
C           -1.05442591413729        3.97888743783765       -3.35064045288601
C            0.11112794787470        3.29137751614069       -2.93750185789335
O            1.22071733579146        4.01988917104560       -2.56971357315777
C            2.35309322448498        3.34862189714206       -2.14901421801554
O            3.37501407736519        3.94291807908008       -1.80932825574836
C            2.34737240305819        1.92052586923482       -2.10579540980228
C            1.25386078636881        1.18748118539864       -2.47637726639617
C            0.09420930055952        1.89027006653279       -2.91101252175728
C           -1.07188962048821        1.17863338215401       -3.28519868915810
C            3.25844980693018       -1.65170575309171       -3.06523849550806
C            2.87966191525115       -1.67777198177130       -4.37914383658851
C            3.65537126528297       -2.33345330302792       -5.38404785173314
O            3.23668399251797       -2.33129762955743       -6.54070745602453
O            4.84221954682395       -2.94833881253130       -5.03404780998132
C            5.25163005248298       -2.90370947493626       -3.71997731391370
C            6.48070395600367       -3.50727922824653       -3.36116128967637
C            6.94004021998497       -3.47589874732676       -2.08475231024611
C            6.19899057074277       -2.83419967116024       -1.05835875727287
C            6.64508768320774       -2.77330895175812        0.27004775663916
C            5.89460935567473       -2.14182267722777        1.23124183877672
C            4.68270017836634       -1.55544478899600        0.90746588539907
C            4.19713749193571       -1.58543536363773       -0.39020397903306
C            4.96312197578680       -2.23241378553106       -1.39030067081295
C            4.49352757064308       -2.27428121029107       -2.72343682576877
H            0.42437370756410       -0.52133141206842        1.31567325424426
H            0.51334381436148       -1.43335802048470       -0.21034728584442
H            0.42381152116309        0.35777286520115       -0.22644303386747
H            0.66480935874888       -3.56798241833323       -4.47134534862397
H           -0.46327529959835       -2.25266815230925       -4.86251446462949
H           -1.02039141426426       -3.67493330750451       -3.92736484595662
H           -2.33161170150100       -1.96156933968773       -3.42227757594133
H           -4.32630900355011       -0.72593897266369       -4.11303142702364
H           -4.28359802193262        1.71823497080556       -4.26174086280164
H           -3.06233760798056        3.85451502744657       -3.99821982083835
H           -1.02318353894499        5.05385204635947       -3.37112124972167
H            3.23647304927662        1.42571935410146       -1.76499143021083
H            1.96800143258802       -1.20156819384636       -4.68380380238785
H            7.04740610374988       -3.99135905947623       -4.13668568239268
H            7.87922654647958       -3.93846767891409       -1.83517522795218
H            7.58552541043331       -3.22838382083750        0.52842939120029
H            6.25037286986201       -2.10269949439259        2.24771399438172
H            4.09364271960911       -1.06506918453727        1.66354458483766
