39
 energy: -7.591716258805 gnorm: 0.000760634031 xtb: 6.5.0 (97a52f5)
C            0.73603416204686       -0.43493435546784        0.09689280196958
O            1.70743071710872       -0.65608689914777        1.08949442805326
C            2.67905416787381       -1.62284305449657        0.77525440795852
C            3.95483881317983       -1.53434473432950        1.32338379966135
C            4.35450182500576       -0.47080580005646        2.24306728263823
C            5.66858722959790       -0.45267533947374        2.71183643676160
C            6.10809482131064        0.51730241764946        3.57653307820390
C            5.24948823608106        1.52672119227972        4.02234321203179
N            5.69415957121236        2.52287009082830        4.91224583768195
C            7.05037236052003        2.50972807480701        5.46001945555401
C            4.83062415830454        3.63618360775139        5.30681870505993
C            3.93211809645484        1.51087741992874        3.55431707690563
C            3.49983067362739        0.53856408492789        2.68950628676244
O            4.95829526755390       -2.45561869047878        1.03023802992912
C            4.68619247543655       -3.49823059608596        0.16850212417490
C            5.69409600177274       -4.42290266030360       -0.13960823868859
C            5.45364789597346       -5.46786104630756       -0.99088857252169
C            4.19839132053220       -5.62824055491008       -1.56356852336691
C            3.19586993584326       -4.73778195999019       -1.27640593014845
C            3.41931507356282       -3.66687186694599       -0.41466742328841
C            2.36027603528269       -2.72542998852247       -0.10644633110544
O            1.23630134520619       -2.88003615801329       -0.57853076409068
H            0.19403114151179        0.48414267771601        0.32358751796578
H            0.04007510874953       -1.27511263637499        0.08684746738998
H            1.22010628978141       -0.34450066576334       -0.87672727826894
H            6.34003969427212       -1.22309965508017        2.37393747416609
H            7.12952990553419        0.50598497150209        3.91183134814894
H            7.25107766501825        1.55124415686946        5.93427911183402
H            7.17812985565053        3.28708289263364        6.21013830238210
H            7.77371670943566        2.67539542911169        4.66433562292991
H            3.97912668602453        3.26444450433659        5.87295052820567
H            4.47196073661277        4.16048679173101        4.42349208692232
H            5.36924544166947        4.34891024736651        5.92728486244167
H            3.24590893767937        2.26998358547463        3.88440242373941
H            2.48200335065284        0.54919660294700        2.34993878522613
H            6.66242363643910       -4.29096245248668        0.30923380066363
H            6.23945986773611       -6.16901670769607       -1.21863899146041
H            4.01386100217118       -6.45232621819667       -2.23274808982452
H            2.21867378757177       -4.85198670773440       -1.71319215260176
