40
 energy: -7.454586499312 gnorm: 0.000667471581 xtb: 6.5.0 (97a52f5)
C            0.85351099010061       -0.40791064391740       -0.10207674988344
O            2.21571520396122       -0.16283337944016        0.15791458621762
C            3.08166471396236       -1.22548506284456       -0.17708197340760
C            4.13785898887991       -1.51215977150494        0.69568635251200
C            4.31404427466909       -0.70927406210957        1.92383562170339
C            5.00499533844628       -2.57527474932240        0.43330983930377
C            4.82171565106460       -3.36031221098299       -0.71776666852950
C            3.80541369102063       -3.03660262558480       -1.62615758273679
C            3.62987125230426       -3.84693093970017       -2.85277005937599
C            2.94802119075151       -1.98484193196120       -1.34589232825711
Cl           1.73053289801325       -1.57204198300499       -2.49467603505716
O            5.63009437277544       -4.49400137844083       -0.94143808105152
C            5.51217739320405       -5.51207741449834        0.01821159489737
C            5.09234704126351       -6.79549680334873       -0.40100442291034
C            4.91524139932785       -7.06267620792258       -1.80735751235988
O            4.49491207866243       -8.07441276637968       -2.30778579190538
C            4.83972626886710       -7.79569457994242        0.55464718621389
O            4.40037052842599       -9.03864902104815        0.18901703880888
C            5.04271507191141       -7.50383265634732        1.91087824052628
Cl           4.69938871219307       -8.74049521228835        3.06621095363220
C            5.51275035720944       -6.27549015827656        2.33202569904829
C            5.74096231178291       -6.03150233790008        3.77966052754973
C            5.76215990053444       -5.26511922386830        1.38200474147174
C            6.44743099784992       -4.01625811595047        1.80122531709203
O            7.34903549460760       -4.11711133397582        2.61512288602961
O            6.08383405737839       -2.77434880876156        1.31661229573332
H            0.25812492074670        0.20180208013521        0.58018906347617
H            0.62888818909157       -1.46425830438451        0.05836997961751
H            0.62965437332844       -0.12306000135683       -1.13148723867111
H            3.93029397240171        0.30192420791764        1.77924948323398
H            5.37002273677589       -0.64507113263744        2.19099237097686
H            3.77749501213664       -1.16223797306002        2.75821628928434
H            4.59931428922221       -4.11269236262929       -3.27584745132340
H            3.07318684400109       -3.29480044212452       -3.61097904974375
H            3.08474496340337       -4.76525556135398       -2.63227420970699
H            5.20554782606486       -6.28261997394960       -2.49830732070709
H            4.31333746730786       -9.04068250077268       -0.78198524415147
H            5.56879539058557       -6.93350368074835        4.36723802153136
H            5.07185299245290       -5.25351493463577        4.14855826853201
H            6.76748084331554       -5.70515604108021        3.95348136238908
