38
 energy: -7.913352821532 gnorm: 0.000365605383 xtb: 6.5.0 (97a52f5)
C            1.16364342572796        0.55095184441595        0.13574605688679
O            2.42554564851893       -0.09749432233679        0.02227433326406
C            3.14875960981730       -0.16652432428938        1.22283584879936
C            2.80417648160077       -1.09871970635111        2.24751911600683
C            1.76926860328595       -2.02934473871962        2.04530761008557
C            1.40797345036702       -2.90534568931404        3.02645246975307
C            2.06873907928839       -2.89192574434859        4.25793934884813
C            3.09016676111229       -2.01779621089806        4.48024257533430
C            3.50721264269895       -1.10475233924870        3.48292656427023
C            4.58570047632059       -0.20290608477663        3.70376442343327
C            5.32299944470171       -0.21116380064216        4.99190282193794
C            5.33895754044868        0.91717937307758        5.81953844248533
C            6.03096466814511        0.91044403974513        7.00881511843808
C            6.72236255045041       -0.21866163785666        7.40291592392255
C            6.71945293620445       -1.34423260935529        6.60203457446180
C            6.03008113788445       -1.34367741316921        5.41118576825026
C            4.95837622644301        0.70051919962438        2.66982452856284
C            6.04926446799734        1.58959596778427        2.81692503937593
C            6.40025674192102        2.45097828795825        1.82078417952344
C            5.68444841799368        2.47070279149806        0.62015965976216
C            4.63349737880784        1.62089395308277        0.43584399931468
C            4.24796288247294        0.71656994638247        1.44035583214684
H            0.63224396218550        0.46575282260788       -0.81251598989119
H            1.31806660578100        1.60511271630962        0.36788516624703
H            0.56886840868708        0.09260228755996        0.92578786648700
H            1.27264184461784       -2.05122166193534        1.09104969374265
H            0.61074004322638       -3.60984186225679        2.85454820089755
H            1.77024681340165       -3.58023264142749        5.03171059853302
H            3.59020961676816       -2.01247812506909        5.43225424461912
H            4.79248334090042        1.79296946554765        5.51427443392253
H            6.03311638843363        1.78816307737266        7.63435274774624
H            7.26459176593225       -0.22105183782467        8.33437021122161
H            7.26105658258834       -2.22396343500278        6.90925171979760
H            6.03678333141870       -2.21542168338916        4.77966836183170
H            6.61280527063635        1.57445691976097        3.73266136537857
H            7.23395295639454        3.12040271317920        1.95604441411916
H            5.96813628343362        3.15679259306341       -0.16098017096543
H            4.08299621338670        1.62554786924145       -0.48893709855052
