72
 energy: -14.023088182073 gnorm: 0.000888940391 xtb: 6.5.0 (97a52f5)
C            2.19554202616630       -3.69127084699301       -5.70549428816775
O            2.60586079195835       -2.32656925471328       -5.79311393678918
C            3.23556356382113       -1.85079392518943       -4.62650763121502
C            4.60210893368965       -2.19621699259980       -4.42047822125625
C            5.31938745749423       -2.91059819498532       -5.39591454302901
C            6.62659410253286       -3.25243002482909       -5.19920601274796
C            7.27660462762661       -2.89221082355733       -4.01614201078995
C            6.61064411678850       -2.18656120737971       -3.05552283811945
C            5.26718107946366       -1.81326432643664       -3.23167640776529
C            4.58742173876034       -1.05847370601592       -2.23291362615729
O            5.33929123435917       -0.60906582652422       -1.12750058239168
C            6.03003889564046        0.60919674597353       -1.37341368058337
C            3.20184549728692       -0.73233827712719       -2.40629147670787
C            2.48458711514806       -0.07601395997567       -1.38344100722228
C            3.02696855281174        0.17192870792774       -0.11321641035654
C            3.43567860481280        0.41471930531193        1.01068954940579
C            3.89097537399957        0.68021156718872        2.34643982083686
C            3.00085410497186        1.76200963733378        2.99070805236545
C            3.81053649107091       -0.61312901581393        3.18228492833302
C            5.35101072748322        1.17335884135131        2.31135632422771
C            1.14142323376773        0.33050425569277       -1.60178524550399
C            0.41628379629593        1.00172449020888       -0.61284134011014
C           -0.89788551088225        1.42350604479134       -0.81435034274872
C           -1.63184504627546        2.10810190308876        0.18608113612385
C           -2.91320277785257        2.50727564081936       -0.04383091873904
C           -3.53192688371372        2.24750051262412       -1.27741301507080
C           -2.86059801370179        1.59315270766772       -2.26498242754756
C           -1.52524551748034        1.16160189719522       -2.06742698508907
C           -0.80835952268254        0.48873400406669       -3.05679190477872
C            0.50789621226196        0.06004741485913       -2.86028029105281
C            1.21439952320954       -0.64348134725473       -3.87193259185337
C            0.54129398370080       -0.85538819538364       -5.08449032937741
C           -0.10445262896409       -1.00134250528691       -6.10958769149541
C           -0.87581697070925       -1.14666463222836       -7.31201251482908
C           -0.27965708509881       -0.25194244266796       -8.41689363907992
C           -0.84637019766545       -2.61639625632893       -7.77562700773823
C           -2.33420710789532       -0.72463738513183       -7.04287882116398
C            2.54008382000948       -1.07104036611260       -3.64528283708059
H            2.98596679732102       -4.30204829049301       -5.26927261412618
H            1.96312404779234       -4.06906566272935       -6.70135014675222
H            1.30570002279101       -3.76623292051499       -5.08012399665362
H            4.82059035878034       -3.17541151740185       -6.31186533239113
H            7.16088800541410       -3.80177803170244       -5.95690247754522
H            8.30639433065166       -3.17123054010344       -3.86466064067426
H            7.10555793135378       -1.91254019617427       -2.14010904628635
H            5.30878909639396        1.42033240864740       -1.47892679367126
H            6.61811830566187        0.52729897411706       -2.28772703070698
H            6.69486516329384        0.82378905174772       -0.53648542385981
H            1.96381887777839        1.43114083540155        3.03837487886525
H            3.03243461018599        2.68415167223150        2.41116053059833
H            3.33082264863992        1.98732657129478        4.00432102872060
H            2.78573580354092       -0.98053505458396        3.22823153697748
H            4.15603468381152       -0.44319155563848        4.20149219363705
H            4.42731491456303       -1.39554134642902        2.74109485214799
H            5.43773660663115        2.08234963021930        1.71693445565604
H            6.00109870560135        0.41882090081574        1.86987903599050
H            5.71584885268627        1.38863734097393        3.31518912206366
H            0.88331281539264        1.20781665009921        0.33213423981375
H           -1.15997541275690        2.30924694036400        1.13239678270784
H           -3.46039049162502        3.02745160851228        0.72522874502647
H           -4.54716914592704        2.57038600897637       -1.44015170173029
H           -3.33751394394094        1.39523919146845       -3.20945945970565
H           -1.29002933750896        0.29131902861938       -3.99622455440210
H            0.75487611887294       -0.52776974661594       -8.61889023694287
H           -0.29453722685023        0.79522903802981       -8.11628856510743
H           -0.84348606419363       -0.34665497993754       -9.34429388762486
H            0.17439700926109       -2.93219223998477       -7.98649668896452
H           -1.43660316515510       -2.75335649210681       -8.68108128188407
H           -1.24904052318707       -3.27338186908649       -7.00549776482137
H           -2.38224189426179        0.31440411448714       -6.71845394682610
H           -2.77672021970218       -1.34107139957471       -6.26104303417184
H           -2.94326662370974       -0.82729228622544       -7.94034201226464
