68
 energy: -14.784690674532 gnorm: 0.000969279691 xtb: 6.5.0 (97a52f5)
C            2.92782044826034       -1.27820780918577       -5.81425482729557
O            3.28223015823071       -2.41602663005358       -5.03862320334534
C            3.77367989436355       -2.10051192362266       -3.75609430689197
C            5.16518207105049       -1.80521189532580       -3.63696007981387
C            6.01719808026125       -1.90804633777472       -4.74836930743501
C            7.34621043422090       -1.60704160826293       -4.64677870612478
C            7.87864075224747       -1.18832110015257       -3.42643325361437
C            7.07543950866403       -1.08873114531991       -2.32542613657103
C            5.70854472078681       -1.40234744929690       -2.39622747523546
C            4.87882785547635       -1.31233821794585       -1.23803865837760
O            5.49874102786844       -0.98526470156414       -0.01562094304284
C            6.07170448755030       -2.10012521132347        0.65531497347111
C            3.47567379070890       -1.58311999863720       -1.34280226194800
C            2.62664465325496       -1.42291584543808       -0.22248394742301
C            3.07604713201375       -0.94416866793135        1.00210590368057
C            3.42459963440851       -0.52604817470499        2.10177252429413
C            3.82219233079581       -0.06329887725406        3.36546061821245
C            4.10284210540155        1.28467986906193        3.57280241627313
C            4.49326433918194        1.73938607175734        4.81414539801463
C            4.61176262759035        0.85643200137166        5.86876060278930
C            4.33926487454240       -0.48360776723821        5.67950148404551
C            3.94791643825542       -0.94071369753981        4.43934868392030
C            1.24167185398546       -1.74173558470969       -0.32129201694431
C            0.38418474356640       -1.58968384083733        0.76868271446081
C           -0.97410036875929       -1.90614485100810        0.69466411526625
C           -1.84598008577406       -1.74878714413287        1.79981515603856
C           -3.16594072977423       -2.06610002480813        1.69302967338172
C           -3.68674697726213       -2.55609606436117        0.48512062659320
C           -2.88060618077678       -2.72219667784240       -0.59977481330914
C           -1.50230221481966       -2.40309857781903       -0.53055622683415
C           -0.64767990807963       -2.55680217238803       -1.62452253074928
C            0.70866654204975       -2.23705751591777       -1.55671337325031
C            1.56099867195357       -2.38598046824466       -2.68849763883362
C            0.98857413014249       -2.90327624221678       -3.84431669509539
C            0.43568249654420       -3.36312408018693       -4.83854584197823
C           -0.18965201811450       -3.88239025108431       -5.98253938175672
C           -0.22096513771627       -5.25447698786127       -6.21766329600917
C           -0.83207095297277       -5.76177487075264       -7.34433121479187
C           -1.42162474494942       -4.90854301727334       -8.25548172307380
C           -1.39897559556802       -3.54553226633766       -8.03766461531781
C           -0.78880846361634       -3.03578408096946       -6.91162326847038
C            2.92776069507500       -2.02984593904920       -2.60172156691935
H            2.55592235730431       -1.60952679536301       -6.78458509759240
H            3.79878861252077       -0.63806097140834       -5.95825990226682
H            2.14620634241691       -0.71670039569158       -5.30078716767279
H            5.60488781670542       -2.23985371371356       -5.68521643045670
H            7.98632927403458       -1.69060080792384       -5.50962212240336
H            8.92575857983337       -0.94408294391907       -3.35474271904657
H            7.48007958099411       -0.75444439151262       -1.38609970564817
H            5.28515397702616       -2.80649953008678        0.92305325324284
H            6.56916296021999       -1.75388104939276        1.56178966403796
H            6.79723195190221       -2.59469058068821        0.00904755983236
H            4.01106706965806        1.96897765810427        2.74656258140898
H            4.70648920561792        2.78552761739532        4.96128027112829
H            4.91671756666108        1.21313830987123        6.83898212928904
H            4.43305479116910       -1.17340620810692        6.50227749254802
H            3.73474101204022       -1.98505954303483        4.28688744113120
H            0.77566599145371       -1.21846526300960        1.69744390286490
H           -1.44900320722121       -1.37325442614806        2.72711942555745
H           -3.81927973666046       -1.94151425225126        2.54097579397605
H           -4.73394488480224       -2.80199839320831        0.41953956123614
H           -3.28240535669937       -3.09789500030658       -1.52491748815129
H           -1.05453047061283       -2.92795275243619       -2.54669482371123
H            0.24204855482952       -5.91597627742408       -5.50536962057549
H           -0.84873378399074       -6.82590917711460       -7.51443937892263
H           -1.89854253944458       -5.30617087701475       -9.13640307739173
H           -1.85846890263152       -2.87896853270984       -8.74906895411839
H           -0.76784988248104       -1.97334193041259       -6.73804016969794
