46
 energy: -8.797121703357 gnorm: 0.000490630472 xtb: 6.5.0 (97a52f5)
C            1.35078822714882       -0.28998477524953       -0.44155044388374
O            2.59323981572258        0.17045620086442        0.06191564047033
C            3.15325481273002        1.20865267373531       -0.71964125456707
C            2.64206642866117        2.53240038595458       -0.60397011543552
C            1.67796427757753        2.84619941796753        0.37670261822675
C            1.16397241627301        4.10360964347859        0.48189006006056
C            1.58693134793283        5.11812104714822       -0.38797613118638
C            2.52638177514388        4.86046074095012       -1.33961325185653
C            3.09057149085304        3.57423068134009       -1.47244143201550
C            4.07920011308004        3.31817867686755       -2.45188513663185
O            4.55895260563946        4.34925495675280       -3.29960381241010
C            5.63034385791099        5.06690380394774       -2.72038758657220
C            4.59000584345713        2.01383247662368       -2.53210229659819
C            4.17619629024891        0.97672086263527       -1.66470215788011
C            4.94533637938621       -0.20123952719519       -2.01467094746662
C            5.04582913778220       -1.50289954298843       -1.46690176467804
C            4.30146988688673       -1.92537812683873       -0.25413588968304
C            5.88970893144889       -2.39626665306757       -2.09422154340903
C            6.65587587037863       -2.05118710592397       -3.20521505407662
C            6.61984762133970       -0.77493507543303       -3.74316265555354
O            7.37118494632377       -0.33782843321708       -4.84048768291148
C            8.27172362651685       -1.29299169438183       -5.35495747701782
C            5.74596714408839        0.14711201307701       -3.11675937123211
N            5.53037387370059        1.49288792535668       -3.42544066958529
C            6.14013672173843        2.20553515893018       -4.53730469530431
H            0.96469646288264       -1.06844117896751        0.21739121274698
H            1.49314804789260       -0.69935731957892       -1.44243078759564
H            0.63442358192967        0.53029101825968       -0.48793411274070
H            1.36586931319779        2.07371889478357        1.05758670334577
H            0.42746606769893        4.32284044023344        1.23731708829776
H            1.16662757749705        6.10637478288976       -0.29891078757868
H            2.84764166427201        5.63567985251898       -2.01316295985054
H            5.30164383770053        5.54169314538797       -1.79526879299477
H            5.96665478459054        5.83271591265637       -3.42037522033255
H            6.45414528640924        4.38571508742374       -2.50403418450465
H            4.21937396127285       -1.10365433523817        0.45697040092845
H            4.80428886924408       -2.74922980014955        0.25357112562371
H            3.29512288330104       -2.25438287449213       -0.51203235987530
H            5.96394069562481       -3.39511761027159       -1.69916200725531
H            7.29587764342771       -2.79309595748999       -3.64634694535458
H            7.72410132511059       -2.15545577003197       -5.73733200507721
H            8.97235871662457       -1.60101915032999       -4.57753610520216
H            8.83162147700999       -0.83933580329311       -6.17383347958818
H            6.23308373900837        1.54138988077048       -5.39408464506943
H            7.13144048107254        2.55377297995086       -4.25566533809821
H            5.52677014226276        3.05870207363221       -4.81873374862858
