42
 energy: -4.533640135105 gnorm: 0.334634135408 xtb: 6.5.0 (97a52f5)
C            2.10987104940462       -0.06837459966334        1.20157648247187
O            3.26826672092495        0.01070755343997        0.51070045465765
C            3.43690694321555        1.21272704943545       -0.18628686498790
C            2.85683555890466        2.45663305886986        0.19628785787311
C            2.08501031733327        2.61958192181137        1.32868343903708
C            1.58421241246596        3.77833363361777        1.65667786368307
C            1.79905253900838        4.86808636821804        0.90673395744497
C            2.52495105455360        4.81036722665598       -0.17507647635428
C            3.09608285051720        3.62491197398928       -0.59186412909650
C            3.91348029950845        3.55493535907539       -1.74966867944261
O            4.13134308524570        4.72092413207379       -2.50187979706439
C            4.85069858116092        4.48456590782301       -3.58594777189863
C            4.46050310824878        2.34429323267385       -2.07388853232170
C            4.25380081492664        1.20461125512907       -1.33835141097449
C            4.90513994413806        0.08122146478748       -1.85862112724979
C            4.84741179940641       -1.16850454942438       -1.41030594325494
C            5.46839344580596       -2.22335705246378       -1.88108734404848
C            6.31320075646414       -2.27071059697395       -2.90256675706024
C            6.91638372701414       -3.42055647465621       -3.35413686671968
C            7.82630349947217       -3.17877601373565       -4.24894566519277
C            6.94266383775663        2.64775867349036       -3.86097865048721
N            5.64012959440140        1.78833528613863       -7.28110552756605
C           10.71543842710531        2.80665973221698       -7.00465377538508
H           -1.09083339625326       -3.82082338481191        2.56743381612691
H           -4.06649451218072       -3.54476389124596       -6.51224190440643
H           -0.75530906905513        2.35200648364352       -1.49993775165411
H            1.97712230977207       -1.05784438154980        1.54337968031131
H           -1.87462311111198        5.71338112257637        4.30382567748756
H            0.60010303161425        9.46248362575253       -0.09056457937182
H            2.54976568540788        6.10878285058814       -3.15780475691630
H            5.63333088782577        6.10389063497183       -1.61451355006480
H            7.28982614006938        5.95086891715355       -7.73593538188846
H           11.09482474579861        5.09354309230024        0.74118364597541
H            4.99697647277499       -0.43954116636506        1.75493142136048
H            3.63464220368201       -5.94405208015157        0.19464596410535
H            8.07158243309095       -8.46842363066921       -3.01337328411424
H            9.45592594931884       -2.52087920761941       -3.75233558163193
H            8.25967883261164       -4.65952729481264       -5.29704503413160
H            7.43739160636458       -2.00281590602681       -5.55696197647150
H            6.33756311428646        2.19744320534416       -5.53895571251217
H            8.48571096885131        2.43750457841872       -2.86378866064616
H            3.99176533755585        1.18067189192280       -8.08120676756013
