39
 energy: -7.745209356596 gnorm: 0.000908258431 xtb: 6.5.0 (97a52f5)
C            1.35470194983155        0.43428971799010        0.14198215733003
O            2.49235713724252       -0.33278012219114       -0.20532155743608
C            3.21341884331522       -0.79427372967230        0.92244760892421
C            2.88404230757748       -2.01642231359247        1.57026915560365
C            1.85186262534736       -2.83532743710469        1.07078666748232
C            1.52208138464752       -4.00267256299025        1.69049703425662
C            2.20536822610373       -4.41131386357867        2.84411664082430
C            3.21443278078594       -3.65149085050878        3.35366308944562
C            3.59262639294315       -2.44107716790485        2.73756626962912
C            4.65761792415711       -1.66629492613795        3.26670200452069
O            5.40526312222109       -2.10518905218267        4.38766467335394
C            6.50021957158731       -2.91831513817244        4.01845287951888
C            4.96527646857060       -0.46167048751517        2.61906080519286
C            4.27108062133559       -0.04606216516054        1.46393330381739
C            4.84785953795881        1.20035319417931        1.04233999443189
C            4.57479979250787        2.04109306327518       -0.03591215995131
C            5.31163722626621        3.19012828656994       -0.17803369916074
C            6.32360484220659        3.52719530870624        0.73174596282555
F            7.03086692621313        4.67429755207433        0.55866324687906
C            6.60256140186589        2.69968716595154        1.79703447887179
C            5.86531008105091        1.52776323676709        1.95746707417017
N            5.92935177115578        0.51424443664633        2.92271945553035
C            6.80873278647820        0.50887999788150        4.08257051918414
H            0.85121348181120        0.75515986121995       -0.77104248931449
H            1.66459584298873        1.30968583298317        0.71415623662505
H            0.67211762557130       -0.16931466847144        0.74130811361196
H            1.33460356795212       -2.52426666299529        0.17983506891293
H            0.73028265431837       -4.61717275506599        1.29490835296553
H            1.92980907512493       -5.33446435932598        3.32679410252927
H            3.73481734109320       -3.95951458194067        4.24368800750947
H            6.13722271202443       -3.82950428292190        3.54162719111325
H            7.06827293374965       -3.17770422453740        4.91244379544093
H            7.14221741611352       -2.37462107497134        3.32381093703858
H            3.80456322209452        1.77321295750537       -0.73669757053675
H            5.12437553741018        3.85894239243077       -0.99903262998517
H            7.38177401607411        2.95748001595613        2.48813850591312
H            6.85365275060499        1.50271987653840        4.52213093167970
H            7.81028217000607        0.20477673477321        3.78784347092018
H            6.43168593169180       -0.18448720450704        4.83107237033241
