43
 energy: -8.347733286474 gnorm: 0.000524892266 xtb: 6.5.0 (97a52f5)
C            1.60230411079874        0.15675628947490        0.48717549347459
O            2.75311325959169        0.14187647126166       -0.33743599446566
C            3.28336020252282       -1.15935575779870       -0.51866776709432
C            2.81630987610925       -2.01934300500445       -1.54894443462235
C            1.83989813658988       -1.57535478864666       -2.46347756608105
C            1.37633367919121       -2.39574937749905       -3.44735284497400
C            1.86296803389755       -3.70512973153143       -3.56739102250946
C            2.81215636694710       -4.16984477562049       -2.70811353847589
C            3.32704330866711       -3.34969550129823       -1.68228292688805
C            4.33143289272941       -3.83617174517935       -0.80681912063044
O            4.88190924683157       -5.13370449373990       -0.96025355453115
C            5.96303999620739       -5.15503432418186       -1.87035387950108
C            4.78185416471972       -2.97348138313096        0.20403555047895
C            4.27938291803067       -1.66239584212469        0.33506197130744
C            4.96141883236191       -1.04989040005148        1.44091553387671
C            4.87686866383796        0.22957817977658        1.99735992589814
C            5.67702523727642        0.53064803399829        3.06965866885923
C            6.56212210647653       -0.41004270390968        3.60080043575388
C            6.67982169867344       -1.69084257991735        3.07408547638874
O            7.54335853714161       -2.68686575543845        3.54398043616449
C            8.38645735710586       -2.28322095426833        4.59882989459318
C            5.84934656170197       -1.99775078920998        1.96712755376999
N            5.73319950605396       -3.17469980772704        1.21489167646290
C            6.46917085771583       -4.40306887235134        1.46426036620420
H            1.25118299745117        1.18398160081384        0.59075804980992
H            1.85127720682262       -0.24291297472458        1.47092976973606
H            0.81706993876927       -0.45127808887502        0.03686168320562
H            1.47325024589878       -0.56752643924099       -2.37512827196250
H            0.63073667811131       -2.03938449835427       -4.13886576729608
H            1.48197144814498       -4.34505248230923       -4.34616888979611
H            3.17961103054516       -5.17754670576658       -2.79400175462518
H            5.62419203270853       -4.83375058827164       -2.85564616344807
H            6.35413144674143       -6.17084185260566       -1.93521518662953
H            6.74911933619757       -4.48467785930023       -1.52173109836069
H            4.20005929433222        0.94993565733674        1.57434011722021
H            5.62402361509347        1.51278260839708        3.50990621674393
H            7.16932566624613       -0.13071450088417        4.44211213026734
H            7.78909935681624       -2.01370915156654        5.47098948164709
H            9.00169610002383       -1.43983013674747        4.28195891191727
H            9.03910278861111       -3.11652301850442        4.86157161390358
H            6.59868473873809       -4.54370989821624        2.53544538206558
H            7.45023145933719       -4.34842237677247        0.99749848953726
H            5.92566906823330       -5.25376568028956        1.05856495260554
