39
 energy: -7.763438503422 gnorm: 0.000446991033 xtb: 6.5.0 (97a52f5)
C            1.43541168413646        0.07900961881702        0.54959450888633
O            2.59973956979083       -0.04755169984618       -0.24670722618602
C            3.22367890205299       -1.31279940270115       -0.11484102877112
C            2.85840037105148       -2.41432632498326       -0.93665200683407
C            1.88064832275734       -2.26448115151099       -1.94048129360402
C            1.51358414712533       -3.31683722972616       -2.72427049875422
C            2.10513032649195       -4.57502430063070       -2.54510062541738
C            3.05917819156661       -4.75869730422724       -1.59015173422226
C            3.47258719546017       -3.69414506714496       -0.76259864501948
C            4.47751905691120       -3.89385967738582        0.22023009521163
O            5.12973878851000       -5.14467932669805        0.36400399231511
C            6.25649024837339       -5.26355454604707       -0.48164994236498
C            4.82106168152547       -2.79878930085935        1.02654303188607
C            4.21626243274937       -1.53596345358942        0.85347434694820
C            4.80589866206076       -0.64219206160195        1.81248228726945
C            4.61069421046254        0.71485122082076        2.07088416040453
C            5.34053612835962        1.30783525213678        3.07251903510170
C            6.26491477028636        0.57207952565501        3.82040054187723
C            6.47393912018045       -0.76396772682787        3.57580327020945
C            5.74104648799367       -1.38185412193431        2.56141920298455
N            5.74391971749073       -2.69902205365150        2.08191640727085
C            6.54386128018796       -3.78996498931114        2.62047126130845
H            1.00443178398174        1.06898197418200        0.39653845692487
H            1.69442785364919       -0.04539910582624        1.60160436668198
H            0.70751907495606       -0.68079890227872        0.26340418653726
H            1.43274787813498       -1.29630719733777       -2.08157556989186
H            0.76414041475087       -3.18470973842700       -3.48716676253184
H            1.80107266147728       -5.39984450798789       -3.16830856137529
H            3.50767191715626       -5.72609604418848       -1.44591494112681
H            5.94409299417892       -5.20632980951402       -1.52504730557634
H            6.73964724199320       -6.22446397973611       -0.30010854270089
H            6.96086148672878       -4.45797733222268       -0.27019631692865
H            3.90446692922800        1.27147959169555        1.48146645417853
H            5.20079824982506        2.35504961777465        3.28423035979372
H            6.82399150179646        1.06280004553522        4.59998512303514
H            7.18794365445336       -1.33259202251846        4.14424177577869
H            6.55597096074346       -3.74539949780385        3.70750356255754
H            7.56507473442480       -3.72043608006535        2.25144489465653
H            6.12110936699711       -4.74540289003286        2.31776967948735
