66
 energy: -12.844415004165 gnorm: 0.000805025757 xtb: 6.5.0 (97a52f5)
C            1.93855755365916       -0.38408804529234        1.04537501101853
O            1.71234738722496       -0.62444022549609       -0.32630222602247
C            2.75360782633309       -1.28034119106960       -0.99984703830761
C            3.95080401387198       -1.62513324456410       -0.38762738010330
C            4.95761075644043       -2.29594503359627       -1.07323647294535
C            6.22107227234252       -2.66416828530457       -0.39236689258189
C            6.16342210687025       -3.52824311941800        0.67546138869114
C            7.31918264403557       -3.99996166961069        1.30067024789815
C            7.23217794322464       -4.90698757890049        2.45750156008017
C            6.06429527618720       -5.58325778175853        2.80990434096151
C            6.03630068943805       -6.41739902105871        3.90567771366791
C            7.16877758677644       -6.61560855919007        4.68297192019546
C            7.12669340920872       -7.49455767243098        5.88423067723167
C            8.33260687712831       -5.94494982090983        4.33648080156366
C            8.36405540393898       -5.11164794119177        3.24144580175637
N            8.53224202529917       -3.65787232815402        0.88123957892858
C            8.62914659005548       -2.79959435514759       -0.16285929833842
C            9.91539896103883       -2.44100703934686       -0.63111871413221
C           11.02216071966292       -2.99333352226164        0.00985605744804
N           11.94772773569497       -3.44851096602568        0.54694175465896
C           10.03196277455431       -1.54287149771203       -1.69903384375954
N           11.28830119085916       -1.20219767579797       -2.23480827903001
C           12.55315105232748       -1.97315364124823       -2.10358313675640
C           13.50382462890198       -1.48477090507231       -3.21122830347336
C           12.63741428627515       -0.63614750996009       -4.16194010020159
C           11.41271053755019       -0.22025107702176       -3.33400362145920
N            8.96561177565976       -0.92991705274036       -2.24902309251100
C            7.74715798990884       -1.22784697171386       -1.80376086694730
N            6.70782628500049       -0.46691752646097       -2.29776501156830
C            7.51182987621745       -2.22909459376834       -0.80640603610997
C            4.73525970444821       -2.64454611991015       -2.40048226548925
C            3.56145625543697       -2.31745377244972       -3.06397995092091
O            3.47739221517730       -2.72737195160031       -4.40881851413654
C            2.39291198821352       -2.21621440055040       -5.13840732546236
C            2.55458328355590       -1.61262959623916       -2.36221200720548
O            1.36058293551238       -1.27335951454299       -3.02344973820863
C            0.85840597945562        0.00443565303453       -2.70616426280272
H            2.79100911744644        0.28491056480038        1.17068808584552
H            2.10907280806410       -1.32799662011722        1.56500613872638
H            1.05134408347895        0.09373177717261        1.46288217577339
H            4.12177059169800       -1.37533472374477        0.64180133873368
H            5.19815009846192       -3.84533909965263        1.02205643535172
H            5.17773536322257       -5.46965085638814        2.21271641996648
H            5.12606689971687       -6.92818233823738        4.16958955436717
H            6.36584619837442       -8.26855213362758        5.77956626707942
H            6.89728854533461       -6.91497982184980        6.77888459154942
H            8.08446658200345       -7.99179451603778        6.04056667317627
H            9.21605448273657       -6.08177254288120        4.93623360303862
H            9.27174635703481       -4.60031335665353        2.97325252214421
H           12.32061611902667       -3.03653892517057       -2.21272824803686
H           12.96674408082311       -1.82269088399241       -1.10205777617378
H           13.99072670471882       -2.31895054393506       -3.73131128826990
H           14.30739429576860       -0.87408052915778       -2.78272406158632
H           12.32631631212973       -1.23093869261354       -5.02864853633764
H           13.18138270767858        0.23195297112191       -4.55442118271684
H           10.49013951869897       -0.21407124527724       -3.92248169326647
H           11.53375067510792        0.77503277297262       -2.89585688537655
H            6.91392763828851        0.33432317117173       -2.86618770261994
H            5.81738208401313       -0.39044332030262       -1.83713746722714
H            5.49783704503785       -3.17444898190779       -2.93995007331360
H            2.48174924608708       -2.53260602464207       -6.17862198291227
H            2.40093547555382       -1.12658239458341       -5.08581479086446
H            1.46278636576698       -2.60178327725859       -4.71789827835151
H            0.17193742287211        0.32393557920670       -3.49138771288552
H            1.68097935470923        0.71685320954628       -2.62756714261308
H            0.32302328865724       -0.04914366347932       -1.75743145883315
