52
 energy: -10.164446334375 gnorm: 0.000658715228 xtb: 6.5.0 (97a52f5)
C            1.67642934044838       -0.63341175453659       -0.42074685348937
C            2.88907397000138       -0.16218789794893       -0.21600926972160
C            3.51326695809279       -0.09098743821955        1.13183493268040
N            4.79980777442395        0.56349203552877        1.13170090662241
S            5.37737501231241        0.53572886995996        2.75189160867674
O            5.07514739827659        1.86719250261035        3.37299848763598
O            4.99192846541633       -0.73500603110739        3.45468688646178
C            7.12671804249830        0.46113141186680        2.36115920998734
C            7.73380811333251       -0.76456802849344        2.15591086839088
C            9.07619002662315       -0.83651347549073        1.84651817650564
C            9.80463610890702        0.33436142376347        1.74351172619777
C            9.19464470311209        1.56902899497650        1.95258340350295
C            7.84265948157511        1.62830309391245        2.26707585120190
C           10.10072963838515        2.72649399723460        1.80013309716453
O            9.75030980114917        3.88345682928432        1.94671474439092
C           11.44627551488765        2.29602713228624        1.45307794269485
C           12.50658449533121        3.10120836965838        1.22666187263518
S           12.44339332271693        4.84382475973235        1.30150713984307
C           14.13098545345693        5.06735746951637        0.88189916109750
C           14.84421861368465        6.24211239679421        0.73140416280155
C           16.17918025254901        6.17418337649589        0.39210439027735
C           16.79605349519229        4.95020961574538        0.20610169422496
S           18.53171161678734        4.87397497488927       -0.24596927028404
O           19.16496768000722        3.72134114175122        0.47390287633814
O           18.60931698195744        4.93969804668552       -1.74443211394789
N           19.05632144842689        6.32749857019766        0.50316009971959
C           19.88431519758543        7.04209327536932       -0.43868011762848
C           20.36996565624542        8.34794163916067        0.07999027453159
C           21.26057121941793        9.08467374006836       -0.55122481193647
C           16.09635490581171        3.77874330865343        0.35657868587366
C           14.74979749957649        3.83332389939133        0.69581244190266
C           13.85414095962246        2.67263538759457        0.88461088389381
O           14.21105818227408        1.51477287666070        0.76263723145180
S           11.50229979562758        0.55367333182057        1.36227339482575
H            1.24698947754738       -0.68385156289827       -1.40207285076642
H            1.07609610275709       -0.98467531164068        0.39428408937450
H            3.48199027015852        0.17566093232866       -1.04969868368911
H            3.65759475593732       -1.10741121686186        1.52552325960964
H            2.84033410695954        0.42267042810448        1.83498477111916
H            4.70330240247312        1.53169569651058        0.85571089885157
H            7.14489399708078       -1.66277044774564        2.24573845064572
H            9.56145761126373       -1.78363211797592        1.68361140239499
H            7.37077441408923        2.58099885489252        2.43798828210113
H           14.35294311130264        7.18850390316715        0.88005709976724
H           16.75751112929814        7.07521475842470        0.27562945298792
H           19.58702450489928        6.07147821876370        1.32385328224309
H           19.29171191572931        7.20489990334947       -1.35011794320926
H           20.73482778456048        6.40899548971268       -0.73255773477082
H           19.94502509968560        8.69556277476617        1.00717697285750
H           21.68622606283758        8.76057030009532       -1.47922959240402
H           21.59058249626437       10.02908606184154       -0.16476412909155
H           16.57795763143941        2.82559548936717        0.21800325746488
