64
 energy: -12.585163189353 gnorm: 0.000518431339 xtb: 6.5.0 (97a52f5)
C            2.52398888044103        0.11594015173908        0.94790684884153
O            2.19626161929627       -0.22316320222183       -0.38198776490264
C            3.10859992410423       -1.06693775009234       -1.03096409527455
C            4.28821276895632       -1.49215245477146       -0.43347282953286
C            5.16860364341461       -2.35379711557948       -1.07544808520351
C            6.41618690847782       -2.79244593941336       -0.41423305889787
C            6.37694174589734       -3.38905526349545        0.83743900423348
C            7.51711924121330       -3.85599520141068        1.51006361177309
N            7.38224218081811       -4.43927266858313        2.79389970507002
C            6.12221442056721       -5.07577851150822        3.23580629327326
C            5.35573740621088       -4.16721295357121        4.20238526414316
C            6.24520295670504       -3.77963165870205        5.39614601968445
C            7.56953981458685       -3.16078249781166        4.91568582753438
C            8.27887496980990       -4.08553434065176        3.91972921926252
C            8.78451438555288       -3.73601302776049        0.88742234116001
C            9.95826775019853       -4.23961084547060        1.44883530300783
N           10.95083668021943       -4.65020987740714        1.89416637284308
C            8.84166821878126       -3.12116322361730       -0.36792579079612
C            7.68083646602123       -2.64010833112743       -1.01739250892698
C            8.08648759119697       -2.01686752980242       -2.27423161275650
C            7.45796527099710       -1.33667833779352       -3.30201552982120
C            8.22117756429706       -0.85929827448945       -4.37457774916368
C            9.58673229783357       -1.03642850750726       -4.44265015362376
C           10.27389727388698       -1.71163960961779       -3.40836679937368
C           11.66082723082543       -1.96690849272200       -3.30172275816814
C           12.16901133475338       -2.63017440935213       -2.20504668574465
C           11.35137281264470       -3.07338397935236       -1.15814817671594
C            9.99197731770627       -2.84473812280996       -1.22637539519598
C            9.48401672350609       -2.17632915412690       -2.35331674981923
C            4.83486856065292       -2.81536595451368       -2.34130478650570
C            3.68037953320502       -2.41200584461263       -2.99652347251557
O            3.49235609747069       -2.94831427586107       -4.28427612129952
C            2.43564148871310       -2.40273772401504       -5.03026881887661
C            2.79919533770415       -1.51260189376597       -2.34320085582679
O            1.63442308333145       -1.11366306192990       -3.01272457612527
C            1.14373563652763        0.16189066157449       -2.67190453734210
H            3.45515264072998        0.68366392633178        0.96946523019650
H            2.61006045180365       -0.78796909281794        1.55241928127700
H            1.72483500007190        0.73667639227359        1.35501470626175
H            4.54660329529347       -1.15085813942200        0.55030450061430
H            5.42080686472863       -3.48249908549096        1.31609598430858
H            6.38094060486616       -6.01847373461915        3.72820858454620
H            5.52318475078827       -5.35012385081349        2.36148938672686
H            4.42912204801502       -4.65039281629113        4.54094125358936
H            5.04210412614322       -3.25857111600557        3.67574210839986
H            6.45733774510635       -4.67200856837778        5.99741791933239
H            5.71508993423788       -3.09104370210257        6.06860825500254
H            8.22488959760793       -2.93014706349486        5.76662153993340
H            7.36509839971742       -2.19965144668889        4.42902370179574
H            8.59359076413941       -5.01220868880151        4.40861638435858
H            9.18495571807009       -3.61576804162890        3.52742797521336
H            6.39653798284616       -1.17461149711876       -3.26943770015639
H            7.72130554944021       -0.33550868486585       -5.17258048449149
H           10.14639756277803       -0.65726621243060       -5.27942756425161
H           12.31337739897677       -1.63307072380993       -4.08905702116635
H           13.22929826484598       -2.81258912026711       -2.14769734231199
H           11.76240360909581       -3.58316318524932       -0.30629641529572
H            5.49183117857485       -3.50268264670517       -2.84100169316652
H            2.44368918273603       -2.83551797552027       -6.03152104939738
H            2.55937878592830       -1.32110154175068       -5.09939583664662
H            1.48974324312269       -2.63702940892873       -4.53968720081112
H            0.44510431585764        0.49374582589037       -3.44107822841518
H            1.97146436090917        0.86895913726967       -2.59983742474021
H            0.62422148703861        0.10146028358672       -1.71480574913102
