39
 energy: -7.573138513704 gnorm: 0.000653526608 xtb: 6.5.0 (97a52f5)
C            1.75967316723132       -1.54836210698003        1.08567424611426
O            1.63498113232557       -1.17473406112553       -0.26826841570091
C            2.77692007918145       -1.37920940789575       -1.05502886528427
C            3.96050693017178       -1.90853483635073       -0.55648701466370
C            5.06686417754459       -2.11259561081097       -1.36468808760347
C            6.27962410306332       -2.67992345802298       -0.77714530409672
C            7.52221651156550       -2.86313066571156       -1.39056191561551
N            8.37392638701910       -3.41250603755424       -0.53161492062158
C            7.69355525742606       -3.57626281163484        0.60041786470801
C            8.25710875589563       -4.16040353591320        1.81198303322469
C            9.57402896063304       -4.58129939941691        1.88048211583214
C           10.04287632459391       -5.12825820737072        3.04889217474902
N            9.32072556556276       -5.29124101109121        4.14712426570660
C            8.06267701614184       -4.88486982598920        4.06824756874779
C            7.49160961692539       -4.32487230807675        2.95266306554539
O            6.39706906776492       -3.13737497314322        0.50162424236886
C            4.98138230943181       -1.78894221188081       -2.71031652965842
C            3.81959607746446       -1.26660332693833       -3.26248578955213
O            3.84582022239885       -0.98268304283416       -4.64094955553661
C            2.58905249381936       -0.94000641671744       -5.26754147257082
C            2.70428928745472       -1.03729708033379       -2.42535301347589
O            1.53895419532114       -0.47656012889516       -2.97912689281079
C            0.91489176728542        0.48719381569723       -2.16505316674178
H            2.54481050401815       -0.95902310220509        1.56157335795048
H            1.97773828942405       -2.61490880200942        1.15682624603770
H            0.81248981345260       -1.34625398985878        1.58772914401542
H            4.04237491623824       -2.17658877875002        0.47961399104579
H            7.78191301535040       -2.60128842886437       -2.40494253096945
H           10.21073855561728       -4.47333757996700        1.01972256740177
H           11.07073741434182       -5.45556146014543        3.10197168827099
H            7.46383679086012       -5.01289609078629        4.95793330983735
H            6.46220595254060       -4.00981755339012        2.94881919854725
H            5.82193606737864       -1.95036016692297       -3.35834397289491
H            2.73177493891865       -0.96473637481964       -6.34892418235268
H            2.08197484720744       -0.01590333275096       -4.98584184978000
H            1.99429235746451       -1.79979402195627       -4.95422878206551
H            0.23353326826012        1.08035672564531       -2.77648195000922
H            1.66940021249243        1.13692508494799       -1.71921182069859
H            0.35068365021663       -0.02108547917260       -1.38209204740341
