60
 energy: -12.950043806330 gnorm: 0.000450658091 xtb: 6.5.0 (97a52f5)
C            3.00452108980955        1.51865490775166       -0.04934659339553
O            2.32357360378169        0.34583360374158        0.33610686018079
C            3.02153170045506       -0.49860848937766        1.20684653771179
C            4.31085565137385       -0.22716031137582        1.65016245739306
C            5.00316513137105       -1.06714203752716        2.50975911782527
C            6.36826297012724       -0.73113073856977        2.89440102115782
N            7.25747995548604       -1.59091756274714        3.38581397641074
C            8.39420218925476       -0.89180303443504        3.58104908060485
C            9.66777482107628       -1.33668417785214        4.08693743077509
C            9.87757028706983       -2.65279820822300        4.46919612818832
C           11.11164134618203       -3.00029568084222        4.93465124408582
C           12.09374776243062       -2.03117963808768        5.00523997627723
N           11.94005224180654       -0.77177216096951        4.65546964840766
C           10.72944224736190       -0.41117979509729        4.19369479840537
C           10.52864348287468        0.98256331221350        3.79650750020787
N           11.56543106125212        1.83020898444867        3.91833062626731
C           11.36159934894218        3.07714166798897        3.55173883038293
C           10.17090170857407        3.57445482697370        3.05773987468426
C            9.10751407396051        2.73052722260174        2.92873529469635
C            9.27288968454056        1.40355380077940        3.30174309683865
C            8.21023226565279        0.44277107424444        3.19888870987973
N            6.92079124783487        0.53762499470464        2.75671005977893
C            4.37279696134203       -2.24652692694841        2.98187133190451
O            5.06633737415435       -3.06728252224404        3.88198789400566
C            4.37160602125157       -4.21206938770638        4.32129754235471
C            3.08797403115146       -2.52341030494610        2.53636288182594
C            2.39667531412957       -1.69045715275862        1.65882471359666
C            1.07510222266670       -2.08022037983888        1.23681238619007
C            0.29239585816936       -1.40472607709453        0.37825169034372
C           -1.00773684152718       -1.83796334507824       -0.03804896476618
N           -1.75496538289869       -1.16280795881563       -0.90528813164098
C           -2.89991129276819       -1.88149749388391       -1.05710282308514
C           -4.03317098143086       -1.63901227875649       -1.85058710003412
C           -5.06445318319264       -2.53917718965092       -1.82098360457281
C           -5.00703542114939       -3.68913083163970       -1.01757621533495
C           -3.91548032382874       -3.95179718625474       -0.23338879157700
C           -2.85063398746607       -3.04410364894632       -0.24912337538295
N           -1.63769022769309       -3.00271504937706        0.39559982425054
H            2.35081773008731        2.09833312753861       -0.70239264769944
H            3.91055439187763        1.25852322303988       -0.59834699058442
H            3.24239617893978        2.11722787787942        0.83101182253453
H            4.81032909754846        0.65323813025652        1.29907551546468
H            9.07698621251223       -3.36812045245701        4.39404061120714
H           11.31717075874908       -4.01284468911857        5.24084473175147
H           13.07113691854110       -2.30554762563537        5.37247547742369
H           12.20398854091254        3.74478079079454        3.65223912586532
H           10.08445025138844        4.61187667430328        2.77924377657392
H            8.16151583171395        3.07395556848244        2.54882585576876
H            6.45567429430615        1.38762504152873        2.44086815958170
H            5.01132369460430       -4.75677717936824        5.01707356288297
H            4.14409218521637       -4.85781674194201        3.47200632137368
H            3.45786685145535       -3.91757913442527        4.83954974318408
H            2.59571450896117       -3.41580507957701        2.87261745967238
H            0.69573980145555       -3.00150348319868        1.63954451665502
H            0.64695986255693       -0.48447891160609       -0.04298635700980
H           -4.07146738953297       -0.75758191771076       -2.46496062964353
H           -5.93863528556202       -2.36362777802006       -2.42596861715917
H           -5.83718284280466       -4.37601525245409       -1.01992824930041
H           -3.86177909537113       -4.82980885487632        0.38488882460681
H           -1.28806650966555       -3.70103815980835        1.04953305198526
