39
 energy: -7.510137685405 gnorm: 0.000959315158 xtb: 6.5.0 (97a52f5)
C            3.38109873279775       -0.96751018108045       -0.22078810664203
O            2.67618824246278        0.21547039189769        0.08297183601124
C            3.34944689193438        1.40869277798204       -0.21646001838946
C            4.62144763135904        1.43760882018915       -0.77093651022296
C            5.25530241972528        2.63224224890326       -1.08825396598172
C            6.57975211979217        2.64778883736100       -1.67236473453103
N            7.19724284063277        3.74806491361262       -2.02252019246254
C            8.43094882168880        3.47879436581141       -2.54711470807549
S            9.71755110603397        4.50826007351205       -3.19218113324757
C           10.73684814877455        3.11955915186787       -3.54028467134161
C           12.00686841254704        3.09149937679036       -4.09672240565203
C           12.63570787729775        1.88162164013453       -4.28058127903763
C           12.00940071883799        0.69183075771298       -3.91515123520212
C           10.75209914663487        0.70306693343891       -3.36422693161723
C           10.10240058234096        1.92784594322314       -3.17109342472224
C            8.79180329616589        2.15324522333980       -2.60976631736715
S            7.50386715228991        1.17152307074563       -1.97518746743154
C            4.58626479961982        3.82233264030853       -0.84212466666719
C            3.31640328226724        3.85516023199608       -0.28499197364717
O            2.76584537988371        5.13680528877595       -0.09704218637581
C            1.51520205041621        5.17856376668885        0.53760365709370
C            2.68525579795986        2.63223478310009        0.04727851438119
O            1.39965229875560        2.65211793890555        0.61725833627847
C            1.19240428200762        1.69484491100149        1.62914293594102
H            4.30399198251929       -1.00943347564292        0.35904240749119
H            3.59453324458048       -1.00873263683543       -1.28984707222272
H            2.75628109795484       -1.82063057094476        0.04723403286271
H            5.14163116602471        0.52222697641945       -0.97384335507193
H           12.48295900803307        4.01595450267232       -4.37439552388729
H           13.62374946299671        1.85347567233553       -4.70963640469628
H           12.51833071799643       -0.24602850842032       -4.06611247100864
H           10.25956717665333       -0.20927960188767       -3.07786871257550
H            5.06183333790853        4.75191993927036       -1.09027279851750
H            1.19915024067272        6.21826132229364        0.63307752511155
H            1.59697062485441        4.72793837699425        1.52797951681283
H            0.78794293311602        4.62783751493470       -0.06154221558749
H            0.33255952835767        1.99244059332574        2.23086451610438
H            2.07824061871320        1.62861837737141        2.26264593292276
H            0.99313682739428        0.72682761189048        1.16763127116809
