39
 energy: -5.011779792863 gnorm: 0.000681063266 xtb: 6.5.0 (97a52f5)
C            1.12614235853234       -0.88172033237816       -1.64289235199521
O            2.48823945139551       -0.68943356581257       -1.53417215243143
C            2.90864414792142       -0.19814397506779       -0.26368196849492
C            4.12394057367097        0.43760465992359       -0.22993593441769
C            4.72709562162258        0.96247311672192        0.82231477752648
C            5.98766246166197        1.60930670812534        0.82985371051488
N            6.68382559778190        1.69408373348277       -0.29133936882800
C            7.83319371986158        2.36858634212181       -0.26135239385040
C            8.11783323389011        3.76947958461822       -0.14201434772313
C            9.56099010940786        3.91895075366652       -0.51373763294626
C           10.42857943884163        2.93245763501530       -0.99998050652428
C           11.73504207894986        3.27747443243450       -1.29660798578034
N           12.16179543941912        4.53544357524856       -1.12044169511009
C           11.35632142948125        5.43596867853586       -0.67017102552798
C           10.07706781580649        5.18105573016752       -0.36082515098842
O            1.54493716705373        7.84028432381156        2.74988017054638
C            6.50662787228188        2.15169744668785        2.04743012304201
C            4.08805561143784        1.71326515778710        7.47761015080592
O            3.19600012144984        0.94399698566869        8.00555547738464
C            2.35296870837464        0.20813588294846        7.51239052976570
C            0.76091522720852        3.84706371819433        1.94657803423677
O            2.14650380425392       -0.39211799125701        0.85764143947856
C            1.08199917732812       -0.97659006597781        0.97790412438611
H            2.56385042929542        3.47365692326929       -5.46253492217525
H            0.80735331807004       -1.58601353343879       -0.89885214778564
H            0.89939912763590       -1.25948059846431       -2.62085030666375
H            5.57170778348321        3.18873818403852       -1.80242838114365
H           11.07999885900623        2.73993399227569        2.24756714964465
H           10.07730770223383        1.92615908854413       -1.14190329153949
H           12.41344851692501        2.52773881965029       -1.67367138583725
H            8.86380662903507       11.23066421594039        2.49616621855934
H            4.23618185249201        6.35330129928654        3.09495965879653
H            4.77153495828562        2.31292541131764        8.00529055038317
H            1.28938384979991       -0.98538892980513        8.23620477639049
H            2.64027194063005       -0.97906890253658        6.23659769397031
H            0.97414544505332        0.71990041641863        6.53775362179871
H            0.29500083325497       -1.01228533994366        2.63993065159783
H            0.79075110109340       -2.69905703903398        1.29416517265987
H           -0.59039350700377       -0.40317656145202        0.75832891572256
