45
 energy: -7.763249363187 gnorm: 0.000888679096 xtb: 6.5.0 (97a52f5)
C            1.04745024045785        0.35750327747030       -0.21617442595134
C            2.35379631041455        0.19701243317152       -0.15958719838038
C            3.12034842083569       -0.56030217475072       -1.18158680440522
N            4.42126749489272       -1.03184515337541       -0.71000234266368
C            5.32215296754016       -1.78304925153237       -1.46113770486142
C            6.46270780998666       -2.33214226607107       -0.84277375466569
C            7.35242957533523       -3.07988640554944       -1.55337230698636
C            7.16150771402817       -3.32615269745415       -2.92094041734504
C            6.02669746256487       -2.78003549816084       -3.55942897645044
C            5.82723673124883       -3.02653547460477       -4.94780130253390
C            6.70407421453917       -3.77398628377398       -5.65180449698236
C            7.85616785428069       -4.34263834448480       -5.04386147731349
O            8.69541555366047       -5.08559925734450       -5.80789282982992
C            9.78081041866415       -5.60299141069357       -5.16200042360778
C           10.69508512619075       -6.38399053835676       -5.87021724349031
C           11.81314942244994       -6.93912584716869       -5.26775951033761
N           12.71369109436540       -7.71774058043402       -5.99746225581599
C           12.59373992702478       -7.88359895110074       -7.44692337749587
C           13.82782473857139       -8.41496213907487       -5.35399738363718
C           12.01402099696282       -6.69038541623903       -3.88901097986673
C           11.14088551024691       -5.93371649683475       -3.17683697562457
C            9.99632414760214       -5.36318503111255       -3.77858261757296
N            9.16283966593003       -4.62783438793729       -3.03647814717547
C            8.09922439848293       -4.12347637890386       -3.66855760408978
C            5.12614975664928       -2.01450487333418       -2.81307347983922
H            0.51401777257711        0.92271502542640        0.52255396709155
H            0.47165863813829       -0.07515079404881       -1.00932822081952
H            2.91319306123484        0.66402429818573        0.63386208103600
H            3.28039492583687        0.07087068663009       -2.06173113987226
H            2.54294699050689       -1.42988458674811       -1.51254485749314
H            4.51011610606544       -1.01165942642721        0.30269568997038
H            6.62269424076256       -2.15074204888133        0.20542995624456
H            8.22033289183518       -3.49767770005062       -1.07427680084439
H            4.96164875083747       -2.60678710025674       -5.43018896084523
H            6.54947732901288       -3.95907082418973       -6.70000993527281
H           10.49843808686604       -6.55917206385996       -6.90999886465132
H           12.46347324118990       -6.91447757225910       -7.92348495621976
H           11.74116882600694       -8.51876636128849       -7.67764427527437
H           13.48947549516354       -8.34067393780137       -7.86130129320622
H           13.46889884826176       -8.97602860037724       -4.49407247095128
H           14.57770142384999       -7.69606043124442       -5.03144565051052
H           14.29408952319425       -9.11817388497861       -6.03992810117145
H           12.88087748380404       -7.09914687882024       -3.40216475874436
H           11.30553107800254       -5.75062728384208       -2.12935447721894
H            4.26495773392691       -1.60068136751562       -3.30216289432435
