24
 energy: -4.506884347620 gnorm: 0.000651841879 xtb: 6.5.0 (97a52f5)
C            1.13581964011225       -0.12763383340473        0.05855278193593
O            2.53807356951910       -0.13612924394803        0.07511247374744
C            3.15626107530639        1.12305563428603        0.06285115650312
C            4.53965411891227        1.13423337175176        0.04147970026119
C            5.28185817075990        2.31695571606961        0.02569033239826
C            6.72985034604026        2.25065395746966        0.00304332441627
C            7.56396873731555        3.29497282703963       -0.01908873759195
C            9.01412975680259        3.10985276959569       -0.04088414360929
O            9.46772462522530        1.97823426081392       -0.03330122153753
O            9.79387817501046        4.23056322913163       -0.06921786735732
C            4.58551599412835        3.52249848037012        0.03259039640082
C            3.21085880982162        3.54331351803730        0.05537990075454
C            2.46601828034556        2.36738202896657        0.07178475259173
O            1.08994555026020        2.40366689256224        0.09787874326103
H            0.77515097161315       -1.15746356895101        0.04898709609810
H            0.79244361405611        0.39494945852299       -0.83615968747816
H            0.77223123623020        0.38551473758941        0.95081466681786
H            5.04953798339880        0.18861737195087        0.03613936909496
H            7.17407405174556        1.27032213188293        0.00394613979153
H            7.17986800787412        4.29550974756364       -0.02172685680011
H            9.26003387432948        5.04621302238171       -0.07244996206314
H            5.12563017624332        4.45189668821960        0.02077058865346
H            2.69404893757400        4.48608364376756        0.06118166522389
H            0.76911429737552        3.32391715833084        0.10792538848733
