81
 energy: -15.610620772399 gnorm: 0.000876918348 xtb: 6.5.0 (97a52f5)
C            2.39112739585789        1.71914342469073        0.86213274678627
O            1.92652180290167        0.39595028910988        0.70637106782568
C            2.84214842938520       -0.61114215599000        0.96359188462052
C            4.13773632795156       -0.34926522931535        1.37463448343236
C            5.08532089135440       -1.35240432758381        1.61060211944226
C            6.39735681810654       -0.98978642932026        2.04937207230400
C            7.42579577898507       -1.83439435430259        2.28606140760118
C            8.68760131473101       -1.35249627734448        2.74887492817552
C            9.74116923289075       -2.22890648618750        2.97446070410915
C           10.92344300715065       -1.76425717081692        3.53822403434418
C           12.01413396451239       -2.62625944512032        3.88484272611581
C           12.07866281255548       -3.95897854223088        3.64707377222203
C           13.17681767594024       -4.81290996138813        3.98235210160941
C           13.14173361086627       -6.16739852576911        3.59191062213278
C           14.17104046576138       -7.00350352804790        3.86819071537990
C           15.34939998890226       -6.57568466075394        4.56761217654186
O           16.25006748921944       -7.52994528821012        4.71126051236415
S           17.60119958215862       -7.14325043920301        5.45953384368549
O           18.52318630523983       -6.24873197159591        4.69067688478748
O           17.48651110835681       -7.00301120420357        6.94526447080968
C           18.45737673949284       -8.74650086759916        5.33001230210513
C           17.73112634150528       -9.91336656225761        5.30949292798459
C           18.37619178022763      -11.12942483321568        5.21320642790964
C           19.76011229212510      -11.19038038615673        5.13502373122293
C           20.46958880370173      -12.49597945900896        5.03805851038519
C           20.47860988513786      -10.00474433809431        5.16121245513442
C           19.82954054192942       -8.79092829929700        5.25707114368423
C           15.37274684244706       -5.17501350337814        5.00385850203068
O           16.46422548171052       -4.71800457458888        5.72414116657855
C           16.43041238646057       -3.36524911022219        6.12404860124574
C           14.29936159875055       -4.36020925094826        4.68662567680802
O           11.06357490197795       -0.44406089950193        3.80033400052199
B           10.19110393519082        0.50938953208389        3.10302142073157
F           10.68776493979360        0.69054843440442        1.83581031243282
F           10.16191999341466        1.69786418159727        3.78211846075817
O            8.83173660075260       -0.03122819336447        2.98461294238002
C            4.69745850962439       -2.69307252683774        1.41100388122954
C            3.43761812041616       -3.00341589371085        1.02058408758396
C            2.42927224587436       -2.00804161398906        0.78752317858450
O            1.25988273380950       -2.51625430842892        0.44568089145915
S            0.07244871463685       -1.48814530184484        0.18726658137313
O           -0.46238010850371       -0.80872100523012        1.40961233675311
O            0.15013940334095       -0.74285888423699       -1.10869757372210
C           -1.27369982274149       -2.66488824507764       -0.16358759303282
C           -2.52927612060181       -2.19261406968682       -0.46407439313631
C           -3.55578435443723       -3.07622509062063       -0.72859174880154
C           -3.33626597902036       -4.44587200339073       -0.69411825475571
C           -4.43393545193399       -5.41004290874914       -0.98185953278129
C           -2.06399587237851       -4.90618185593686       -0.39107089132232
C           -1.04073437646013       -4.01911934438396       -0.12753078954127
H            3.22595501569887        1.90190591553015        0.18336566903194
H            2.68057171041140        1.89073967026786        1.90024236434216
H            1.57278249058339        2.39443276634050        0.60652819614078
H            4.44690836462023        0.66772830069793        1.52102716821699
H            6.58720652387054        0.05713165844284        2.21400720520487
H            7.31018168491845       -2.89004545000813        2.13004723511247
H            9.60456903776450       -3.27362479478057        2.77183097671798
H           12.84727075158709       -2.13649022021274        4.35173179035861
H           11.25157927595978       -4.42716082867648        3.14566886198471
H           12.28184736757688       -6.53224897249944        3.05661929454329
H           14.13505001409821       -8.03152656315405        3.55372296771683
H           16.65595513836752       -9.86488091627018        5.36384278350201
H           17.80499357908487      -12.04178978380114        5.19743324443682
H           19.76893594375360      -13.32047008740166        4.90433632919917
H           21.04645268264612      -12.69001612951313        5.94281516777978
H           21.15533733399744      -12.50234038322661        4.19021012376112
H           21.55318668872697      -10.03987061426948        5.10491875481907
H           20.38744297439164       -7.86888806542079        5.26972371139523
H           17.34705933581136       -3.15673369898165        6.67846472372314
H           15.57419198951566       -3.19256208983388        6.77834757681475
H           16.39380449197169       -2.71923082078891        5.24523794634787
H           14.32027548923041       -3.33717860191057        5.00291065183658
H            5.40797723119915       -3.48195950392510        1.58024205580063
H            3.15094921787542       -4.03071865801953        0.88104908809688
H           -2.70080596960881       -1.12888253695017       -0.49018796754622
H           -4.53792063703444       -2.70423981457628       -0.96507002489575
H           -5.38152764921779       -4.89681007355367       -1.14690830845150
H           -4.57030952997703       -6.10093713104319       -0.14931078506817
H           -4.21050976104391       -5.99442079140765       -1.87496654761897
H           -1.88068744180661       -5.96671581598694       -0.36287831307343
H           -0.05198805402260       -4.37540249980192        0.10939602367098
