44
 energy: -7.440604677227 gnorm: 0.000603583888 xtb: 6.5.0 (97a52f5)
C            0.97589541174722       -0.03211651107895        0.02296523319432
O            2.37681590092146       -0.06049729449305        0.07461338266738
C            3.01066025133436        1.18831952509363        0.07910044017024
C            4.39435501799226        1.18072470974591        0.09190707968089
C            5.15464326605878        2.35229603112744        0.09611845185303
C            6.59908908491947        2.26013280943466        0.10008273165170
C            7.45046751745503        3.30128783071678        0.06256396162752
C            8.89427589469382        3.20710952214805        0.05757109885496
C            9.57521837598817        1.98911255416346        0.15012290889617
C           10.94118824937338        1.95822143411922        0.13855069911781
N           11.65411615935083        3.10946909071661        0.03198850837954
C           13.13165375015632        3.07583818691700        0.04033947047108
C           13.70567872686362        3.77909726040924        1.22747060052261
C           13.22177790235942        3.50304971672247        2.49522561908377
C           13.73754412622011        4.14986085673730        3.60197022064803
C           14.74189314633231        5.07666331653941        3.44701624764606
Br          15.44238595774438        5.96026012155295        4.95312255174259
C           15.23541422240414        5.36053459773233        2.19489402328447
C           14.72069261739474        4.71349033402379        1.08755930343026
C           11.02271259538879        4.30727352981183       -0.05723313122009
C            9.65885844659090        4.37304356364495       -0.04405663011771
C            4.47315139795002        3.56928942843922        0.09237792304199
C            3.10032621488174        3.60949856790436        0.08070131294522
C            2.33747154063120        2.44337028467361        0.07185764253694
O            0.96559667453509        2.49783806358552        0.05614571423441
H            0.60205614862392       -1.05707127821982        0.01013904120664
H            0.66285447658451        0.49047789714090       -0.88269466662356
H            0.59792824307054        0.49176596478702        0.90288283881585
H            4.89022437626647        0.22766660202241        0.09566906483309
H            7.00627600622519        1.26676675770065        0.12470592132848
H            7.04414050640988        4.29451886299934        0.02250852937028
H            9.02653582172060        1.06902162478775        0.23728797262413
H           11.47145615929042        1.02491432894984        0.21248767241283
H           13.48588713895497        3.53188114224743       -0.88717634900026
H           13.46947669436280        2.03707083834030        0.02740833683502
H           12.42960544431382        2.78331976424055        2.60702734446939
H           13.36101005187872        3.93875502978117        4.58987932491421
H           16.02311172067318        6.08941568396891        2.09111321618540
H           15.10724173379307        4.93352251044208        0.10752655330249
H           11.62111827641077        5.19863082112655       -0.12999077736955
H            9.16355745441018        5.32597189084278       -0.11379749887088
H            5.02472286475281        4.49177616542356        0.10139412687033
H            2.59681081102221        4.55944815616247        0.07744217001043
H            0.65686362194647        3.42162970686659        0.05025181434415
