35
 energy: -6.820536232109 gnorm: 0.000646947783 xtb: 6.5.0 (97a52f5)
C            1.19872598344234        0.09777687735316       -0.71832627564301
O            2.45461094788710        0.06954312377261       -0.06926696298985
C            3.14456236757159        1.30428040605196       -0.08745403960694
C            4.38112570999643        1.33455954583262       -0.72531479543908
C            5.13919622256353        2.49100483926475       -0.85134971365823
C            6.40792591995304        2.41499246475598       -1.53811131661037
C            7.26857674061777        3.43218765490003       -1.70992636129315
C            8.54851674619281        3.36977209717882       -2.38364402588396
C            8.97302522006452        2.21025404934747       -3.03243303116219
C           10.19126002069891        2.18504415389714       -3.65511613869173
C           10.96003126651720        3.32297349306677       -3.61546774115301
C           10.46994320513450        4.42579963511331       -2.95941910490025
N            9.29872381744289        4.48172187606333       -2.35101296588404
C            4.63503135259500        3.69966543773249       -0.30158330760494
O            5.39151940705752        4.86747507114510       -0.44005702004591
C            4.82574556432177        6.02878491768641        0.12387187661896
C            3.40974370511548        3.66316869926058        0.35689541700923
C            2.66066580041065        2.50202486313011        0.49073434048534
C            1.43010202807121        2.55314977674498        1.26556710759258
O            0.76362363558926        1.63621048547611        1.66501519166715
H            0.88921976392917       -0.92730671010498       -0.92620146659171
H            1.27889631234215        0.65236067089642       -1.65436049070890
H            0.46491504513432        0.56991944054141       -0.06516587623327
H            4.74656690081866        0.41634500050151       -1.14673878283501
H            6.67436536717585        1.44889279130055       -1.92564574017142
H            7.01344416758052        4.39424098636383       -1.30612440212850
H            8.34582451491404        1.33739752248178       -3.05390780852920
H           10.53775916542330        1.29922965594968       -4.16269270674110
H           11.92708996881978        3.34920821978708       -4.09025224757139
H           11.06773044443796        5.32443405943656       -2.92392059934176
H            5.50122071683099        6.86502068738559       -0.06162974042004
H            4.71106821417589        5.90007482929473        1.20112650910670
H            3.86476551963967        6.24007273317136       -0.34734453218162
H            3.02434187087525        4.56163291245084        0.79996763500509
H            1.07209636666011        3.53474773277246        1.54921911653667
