35
 energy: -6.734780477240 gnorm: 0.000937171407 xtb: 6.5.0 (97a52f5)
C            1.01100731571596       -0.22354378109728        0.82124322087148
O            2.25628233840765        0.00759728830468        0.19232219566996
C            2.96201857015103       -1.17112334579647       -0.14529781429452
C            4.20150502151789       -1.36955149414120        0.45555919121717
C            4.97283221567197       -2.50379280517344        0.24020884578321
C            6.24734487610030       -2.61424224998153        0.91087221736802
C            7.12189237568187       -3.62420795277553        0.76979960671348
C            8.40350401782655       -3.73646631486390        1.41460706259709
C            8.87968448222383       -2.79980704830342        2.32261541947107
C           10.12418006030306       -2.99902534229823        2.87773023232413
N           10.82063352887642       -4.06979531935806        2.52650856950904
C           10.32301807715194       -4.93413788781454        1.66069650259394
C            9.12940723392987       -4.80909773218274        1.08442803448439
C            4.47806712751043       -3.50896060415939       -0.63275190933822
O            5.24816045732107       -4.65800390508005       -0.83708855998492
C            4.66490401307377       -5.64243496233298       -1.66044104067930
C            3.24973948228336       -3.29839889304789       -1.25174863562077
C            2.48836122302078       -2.15630454731854       -1.04448059951519
C            1.25438887978327       -1.99589563417346       -1.79818394579257
O            0.56337523812495       -1.01747775931752       -1.89566356036997
H            0.70034555754398        0.69028628097895        1.32954279028147
H            1.10849945792614       -1.03115518787286        1.54811669719183
H            0.26962832821314       -0.48628257277482        0.06656060142827
H            4.55982737489684       -0.60734218911440        1.12265022391560
H            6.50921222419189       -1.80195935497988        1.56420180570624
H            6.87762252454188       -4.43785219137815        0.11153130198666
H            8.29492720036533       -1.93880005576530        2.59222434761363
H           10.52484871560086       -2.28984872481096        3.58618926603641
H           17.03719200606806       -5.72265029963825        1.23833093868953
H           10.89086738889498       -5.80857017586361        1.37283764991131
H            5.33476086147791       -6.50285561793493       -1.69466260269539
H            4.53887202704904       -5.25234806019284       -2.67155094422936
H            3.70740637346553       -5.95704827822383       -1.24233158277710
H            2.87335027964537       -4.03478603513071       -1.93607172246553
H            0.91562314426094       -2.85144724604114       -2.36877380213929
