37
 energy: -7.824600088432 gnorm: 0.000516460529 xtb: 6.5.0 (97a52f5)
C            1.15862445271556       -0.08365093816771       -0.08353417669133
C            2.47543823730168       -0.06711591737780       -0.03185292182213
C            3.26961921318920       -1.09662012257489        0.68675486831912
N            4.59735187959445       -0.63514113707998        1.08775390040355
C            5.55979034642091       -1.40577321151655        1.72867711035137
C            5.39001241610415       -2.79067078451651        1.93911530079568
C            6.34502733138798       -3.52464168635828        2.57549170860091
C            7.53077834572318       -2.92142855861684        3.04306436551621
C            8.53962924734375       -3.65795109802854        3.70907008452378
C            9.66780205970850       -3.04906967140391        4.15182675858268
C            9.88558556083823       -1.66028152859003        3.97096049645227
O           11.03818075322161       -1.10717856221853        4.44186944294795
C           11.17760304376311        0.24135877652645        4.23819495500412
C           12.31697334483162        0.88323240350387        4.68415350834960
C           12.51861910196945        2.27359797360477        4.50766651437871
O           13.54812507367178        2.83750821369390        4.91267552117596
C           11.47928340988129        3.00703461747315        3.83851961294145
C           10.36270441289998        2.38992605501097        3.39716926971493
C           10.16066577398906        0.99337405821369        3.57156698932606
N            9.04416622217804        0.43761286904233        3.11175137601720
C            8.90951385374688       -0.88286232795836        3.31234770333921
C            7.71395328892118       -1.53405775020899        2.84083726197087
C            6.72309930963007       -0.80732564916479        2.18551538034043
H            0.60393913224804        0.66092517505655       -0.62007835386074
H            0.59550036036694       -0.84740410630044        0.41436320240435
H            3.01971555771105        0.69846080687080       -0.55952500349385
H            3.38516893591870       -1.98089741893376        0.05153090027378
H            2.73553375546597       -1.42162485472520        1.58599820760309
H            4.69155900670211        0.37720458147775        1.06317184308669
H            4.49038058294594       -3.26573012527821        1.59162111835723
H            6.20250160621528       -4.57998347003841        2.73065192755818
H            8.39772709331160       -4.71381478418652        3.86081520066652
H           10.43085733061505       -3.61341252868770        4.65773335913454
H           13.07568135539239        0.31133519087045        5.18169691806497
H           11.61848136451742        4.06389303335141        3.69975713898337
H            9.59248044126155        2.95071493189619        2.89729274545612
H            6.87003679829604        0.24497754534086        2.03594576522779
