60
 energy: -10.633431842805 gnorm: 0.000839544526 xtb: 6.5.0 (97a52f5)
C            2.02117092707325        1.72356010239331       -1.00535724412266
O            1.72086992208002        1.41380132485151        0.33877302075888
C            2.81326989263101        1.45190586318310        1.21997581141978
C            4.07534933182677        1.89472609548330        0.84986932827998
C            5.13992119777075        1.93485127147363        1.74932916410595
C            6.42786191295694        2.40660137355869        1.30459687319967
C            7.56327303699328        2.39637030098687        2.03521077453945
C            8.84190664128892        2.86706962932623        1.61576911329570
N            9.85137338490596        2.69618967366455        2.46922584111513
C           11.05706318921080        3.14824140538798        2.11777059955185
N           12.11937657847045        2.97603522299411        3.05612433061742
C           12.05388641527419        1.83033363370280        3.97029879914317
C           11.37043637747314        2.23819155059292        5.27273344642682
O           12.03065257314197        3.34538837183227        5.87473092413948
C           12.08325578731375        4.47505171933252        5.01032039107923
C           12.77067747489706        4.14255206952646        3.68614400284161
C           11.31536545261546        3.75922461234209        0.87026930123325
C           10.27848655279737        3.92151098840425       -0.00848060112168
N            9.01427429459113        3.47920861631876        0.36116422146778
O            8.03889458357140        3.62976156368014       -0.44281452463432
C           10.42927747409000        4.50714989600180       -1.37851521486864
C           11.83540633687820        5.05288052510055       -1.68995334373220
C           12.92482489269655        4.19677893916209       -1.03119504408510
C           12.71744685171795        4.14927862570352        0.49082549210922
C            4.90560097855773        1.52868465264371        3.06145342438434
C            3.65948443131154        1.09268712890175        3.48486292886241
O            3.53670598521061        0.71826616691595        4.83889792442744
C            2.24836767749149        0.87199177573551        5.38106791584704
C            2.59833788128111        1.02738318909736        2.55273833155410
O            1.34889973233148        0.53835113387338        2.97544846920545
C            0.72441348556604       -0.32515950070404        2.05429344785691
H            2.78453820880948        1.04178073512178       -1.38292662716526
H            2.35706090683714        2.75833123610951       -1.08319433785176
H            1.11538105284378        1.60339562435772       -1.60069172272786
H            4.25102372172147        2.21951332901691       -0.15765246363262
H            6.47775587342978        2.79110427924685        0.30394364968051
H            7.53089970372174        1.98447292748544        3.02662447467823
H           13.07317753259462        1.48313148490312        4.16501976233243
H           11.52266633120336        1.01148014930438        3.47299521924898
H           11.35595004911477        1.41919954986198        6.00356815973196
H           10.33027291120257        2.53168245647218        5.08890673948003
H           12.60192642147243        5.27883191315830        5.54890725443049
H           11.05343017059676        4.81036851629439        4.84064377376323
H           13.82560122757269        3.90396083959044        3.85018664144460
H           12.73429147990611        4.99665025132730        3.00454259916398
H            9.67449878848280        5.29353887800236       -1.50089678393946
H           10.16155960287566        3.73414081828275       -2.10800338969402
H           11.91658230169312        6.08243586603123       -1.32063084741011
H           11.99668757769902        5.11688968122981       -2.77462666475345
H           13.92604656790231        4.57431685096805       -1.28068031195770
H           12.88163264176649        3.17835006402506       -1.43569517296889
H           12.93911899411772        5.13580781829619        0.91180653273190
H           13.42539677411101        3.45265341155678        0.95622202515295
H            5.69276128738725        1.56286627061238        3.78944799569933
H            2.31199175182257        0.82865393848921        6.46929937281759
H            1.60971414273873        0.06373127903325        5.02255928982901
H            1.83318592677658        1.83405477596463        5.07636643421686
H           -0.04307685857204       -0.90378559376111        2.57025625628026
H            1.46361531247746       -1.00128828844182        1.62231969575186
H            0.25912834369122        0.26832301597011        1.26654454074016
