88
 energy: -17.920806175943 gnorm: 0.000761215835 xtb: 6.5.0 (97a52f5)
C            2.93851694367562        1.34507978152498       -1.12393331966995
O            2.35278384388735        0.92407967373743        0.08711682826248
C            3.10991009022800        1.16502998489984        1.23868097074384
C            4.36371608544300        1.76247615373865        1.21148109035920
C            5.11284501179753        1.99914885005474        2.36002695473455
C            6.40657168644683        2.61922793643956        2.22365299212699
C            7.25586367658375        2.90707309460086        3.22161874238140
C            8.53093802612540        3.51999430555476        2.98511142503197
N            9.38466743237607        3.80484913876324        3.95801862562702
C           10.45458379368176        4.35966967497429        3.34317076205800
C           11.65835752466992        4.85249715019366        3.87274265444253
C           12.58957383614892        5.37438259481369        3.01851817004060
C           12.35918520850765        5.42309406168825        1.63483933189977
C           11.19669932283972        4.95030720303695        1.09195093914833
C           10.22164148027193        4.40856564713180        1.94066187958530
O            8.98402530638320        3.86582283014986        1.72752304770634
C            4.57898045214989        1.61830641590336        3.62073179903074
O            5.33634377704304        1.85749522822491        4.77245053568441
C            4.75019378138027        1.43559029028491        5.98313422881221
C            3.32410786516364        1.02236251077538        3.64833432428430
C            2.57691062838916        0.78329923771386        2.49920063249524
C            1.28995502845576        0.15078007901420        2.63161778473367
C            0.46757859698222       -0.19063406374865        1.62557641255681
C           -0.80025661094272       -0.84293979161841        1.83367618650517
N           -1.49799113523714       -1.16058318533160        0.74754056945113
C           -2.64324764451221       -1.76183803397413        0.98938589875927
C           -3.46352676008988       -2.16178190665011       -0.19205032673478
N           -3.11722153415095       -2.06704931692915        2.17828854355301
C           -2.34065166518088       -1.70046373947246        3.19326724380548
C           -2.81167539552853       -2.00811723025447        4.51994932023902
C           -2.14481963417805       -1.65442196662277        5.63131984942130
C           -2.54429607263677       -1.92598287375003        6.98779655235384
C           -1.74683197438035       -1.45009600997236        8.02432490109699
C           -2.05202502626263       -1.66883467849726        9.36054182914399
O           -1.28183445636496       -1.20265296418665       10.43321764416167
C           -0.14344918887556       -0.45439120131274       10.07230129654911
C           -3.21934257635442       -2.41101270949311        9.67416558086818
C           -3.52795823401560       -2.64427356409922       11.05978615561214
C           -4.58274514126383       -3.32789970148858       11.53398636494584
C           -4.79068870233861       -3.50841516756369       12.94310383075657
N           -5.82645327840092       -4.16482235876914       13.44765885795036
C           -5.66244491293095       -4.11494469407379       14.78936616994758
C           -6.44860804833808       -4.64427201311408       15.82560795791916
C           -6.04987326618599       -4.45238043689146       17.11918618764423
C           -4.87711892103386       -3.74225310827990       17.41992171729944
C           -4.09232385618863       -3.21687570167521       16.43104248440191
C           -4.47361465020388       -3.39589142796842       15.09419609257105
O           -3.92745346776264       -3.01256189904225       13.89979773850503
C           -4.01870857240166       -2.88681162841849        8.64032367263294
C           -3.71714150401844       -2.66632105215098        7.30168010955762
O           -4.51124486121708       -3.14183491237695        6.25249974480703
C           -5.64752124684449       -3.88213627206511        6.63780042403030
N           -1.17393519698661       -1.08538395629915        3.08009055195147
H            2.25028117102962        1.11399821688506       -1.93806049118107
H            3.87406737847141        0.80917694654754       -1.28996493805321
H            3.10754230693274        2.42254933636152       -1.10025627902216
H            4.78526225299599        2.05618345064528        0.26930972906210
H            6.72349857832933        2.87203664689705        1.22630078017769
H            6.99611916149256        2.67726696900605        4.23671911342308
H           11.82685533051207        4.81148424276438        4.93378434684882
H           13.51734954219725        5.75534764618390        3.41220920035742
H           13.11440189216430        5.84136466921136        0.99005351938300
H           11.01341397578297        4.98476426481656        0.03320250848637
H            5.43667328773169        1.66887193934478        6.79811896375008
H            4.58412408303009        0.35762824635912        5.95976469696577
H            3.81312031829668        1.96908578663536        6.14828320664466
H            2.90312543652405        0.72654158352443        4.59006759738645
H            0.96212495135422       -0.07990827848165        3.62968791732900
H            0.75160838700554        0.01177766655944        0.61054414375529
H           -3.22410586106000       -1.53975480762777       -1.05367280740191
H           -4.52578763379201       -2.05387564969288        0.02351561817019
H           -3.27174856209858       -3.20101183782278       -0.45661516774255
H           -3.73840208772020       -2.54371495426123        4.59933004142080
H           -1.22477761544410       -1.11405243789765        5.49579325063052
H           -0.86502606090661       -0.89369638355467        7.76988441491566
H           -0.44498322414537        0.43429865069699        9.51592897455009
H            0.53395112853961       -1.07078808055787        9.47962052530409
H            0.36801155798211       -0.14449479047356       10.98468288420931
H           -2.83931078141576       -2.23061654012972       11.77707719420589
H           -5.30277685761483       -3.76128035946828       10.86769062323861
H           -7.34535097998672       -5.18690044149155       15.58615259887478
H           -6.64465887592292       -4.85263366346789       17.92351582851453
H           -4.59140956397903       -3.61036961296954       18.45045817232376
H           -3.19230544634761       -2.67282870550896       16.65391625678074
H           -4.89868202064720       -3.44526714813646        8.88829302184258
H           -6.31422262696780       -3.25666367032102        7.23305971101135
H           -5.34223624904925       -4.76701083008944        7.19810475400834
H           -6.17369215706225       -4.20019234743683        5.73678012802122
