88
 energy: -17.726559478281 gnorm: 0.000437602966 xtb: 6.5.0 (97a52f5)
C            2.86802393277074       -0.90391771412681        1.12863981309692
O            2.44460752205398       -0.45830433824545       -0.14026953753335
C            3.21214236794736       -0.90466669082596       -1.22136216078181
C            4.33725948236286       -1.70597513324285       -1.07392608539735
C            5.09673235184110       -2.14866587021237       -2.15355373784310
C            6.25478372989472       -2.96059831251952       -1.89224588280164
C            7.10138986372803       -3.45827624419059       -2.81447892307875
C            8.24427872704243       -4.24112618249440       -2.49548890114100
N            9.05918600859657       -4.71446880955378       -3.39982421352122
C           10.09312277046421       -5.43283348103650       -2.82878638957044
C           11.13391953139335       -6.06009378606015       -3.52980209280327
C           12.10509889110281       -6.73728973294406       -2.83665388250996
C           12.06967525560125       -6.81014269335229       -1.44513360962013
C           11.05839407549616       -6.20349422962552       -0.73950425342307
C           10.07123507238864       -5.51504823283850       -1.42924555040102
S            8.68691063898379       -4.65472438264027       -0.83332329046556
C            4.70658595653498       -1.77638975336471       -3.46937613670854
O            5.46778347422570       -2.22826395119808       -4.55207960195866
C            5.02673304537184       -1.80425949460750       -5.82241251163844
C            3.58113157210132       -0.97436829774449       -3.61626731261663
C            2.82835010754488       -0.52439270580808       -2.53632007338824
C            1.69000340127399        0.31883021510309       -2.79418299271426
C            0.89573723077285        0.88481783800778       -1.87014505070600
C           -0.21506615054783        1.73963446203629       -2.20708235096264
N           -0.88779875670478        2.27728264072948       -1.19407366459353
C           -1.88578733227840        3.05626987127732       -1.55321263044260
C           -2.66560270110923        3.70763440544712       -0.45906615234321
N           -2.23963227383113        3.33614104199005       -2.78948719509368
C           -1.50427854071056        2.73873133328420       -3.72255674301089
C           -1.85725972255340        2.99822588786804       -5.09592628633658
C           -1.21952336852746        2.43224320581288       -6.13417687308989
C           -1.51490188114382        2.63498761897430       -7.52879038155246
C           -0.77353989265805        1.93145842564851       -8.47346501357095
C           -0.99013676124050        2.06243473191517       -9.83828330810114
O           -0.27697564461838        1.37180875895686      -10.82569623081397
C            0.68216841925572        0.46007054692407      -10.34008692036006
C           -2.00070669545835        2.95524157324076      -10.27836430415940
C           -2.20440935720942        3.09161351153492      -11.69180378773465
C           -3.07808782869746        3.91434731439757      -12.30696397132830
C           -3.19139688423106        3.98399421699820      -13.72347389664087
N           -4.01036529809290        4.78831122645273      -14.34768042045719
C           -3.90813394052151        4.65483638616107      -15.71974073971159
C           -4.64557386642696        5.38236297399828      -16.66568441834957
C           -4.44320787193612        5.15344403345843      -18.00319770324298
C           -3.51506686408005        4.20645889668874      -18.43308483543146
C           -2.78219360841714        3.48331737970075      -17.52282817855968
C           -2.97660515101080        3.70740932002695      -16.16778141379771
S           -2.21267191090705        2.97136437253880      -14.79424550538756
C           -2.74564511084773        3.65862893095345       -9.33750704419463
C           -2.53381069417315        3.52531005206884       -7.97038645185610
O           -3.27495401613124        4.22656991277934       -7.01324650480788
C           -4.23316841389637        5.12573499534829       -7.52587325812320
N           -0.48054334468510        1.93214598740285       -3.48976756730194
H            2.18382075959798       -0.50813840856799        1.88030070296105
H            3.87250155449007       -0.53317519322485        1.33710992585107
H            2.84192207418006       -1.99377268930917        1.16809519879709
H            4.64809292705317       -1.99950195405130       -0.08958049335902
H            6.46605093495661       -3.18216493646869       -0.86105316316435
H            6.92650158961174       -3.25842173842228       -3.85431799133293
H           11.15464310118010       -5.99906272632680       -4.60314035918585
H           12.90576838131805       -7.21880200520801       -3.37342602611010
H           12.84229747512237       -7.34621372956560       -0.91913563727508
H           11.01991693931530       -6.25211595694277        0.33482126313675
H            5.69992026943593       -2.21388305581787       -6.57661201588724
H            5.05332161079116       -0.71528779992073       -5.88129120661338
H            4.01905158872083       -2.17741896240227       -6.01033077585169
H            3.27204216773442       -0.67751976412790       -4.60010673560597
H            1.46421421839575        0.52696521968902       -3.82492718071693
H            1.08471641969958        0.71627874245159       -0.82717842812981
H           -2.65575170303529        3.09119191920242        0.43898307120095
H           -3.70160716896530        3.85572445994729       -0.76130787956314
H           -2.23895557216811        4.67889825662618       -0.21124448946064
H           -2.67213807817937        3.67390229448178       -5.27253553648097
H           -0.41433379087662        1.75783390150437       -5.90258216471171
H           -0.00812450139325        1.26542945556782       -8.12349003000113
H            0.19853230362070       -0.28805098435722       -9.71034501373917
H            1.45264706361557        0.99354436323409       -9.78171084687181
H            1.14510017643803       -0.04097609104319      -11.19130932291629
H           -1.57843804614313        2.47484705467059      -12.31307081381767
H           -3.71425256344735        4.55832193118011      -11.72972691251925
H           -5.35892542025101        6.11179152316657      -16.32619894750661
H           -5.00744417905059        5.71248976723845      -18.73131690429000
H           -3.37090746137665        4.04125484794609      -19.48803213098272
H           -2.06218972809148        2.74994231320865      -17.84187661581498
H           -3.51253835807055        4.32191221418907       -9.68390147928326
H           -4.99047178029114        4.57982758533604       -8.09013421343170
H           -3.74512327281694        5.87207613320716       -8.15419068329885
H           -4.71503947719125        5.63238198178186       -6.68870003514892
