26
 energy: -5.086787019968 gnorm: 0.000620642742 xtb: 6.5.0 (97a52f5)
C            0.85306966299082       -0.00481610814952       -0.67418866486628
O            2.25034281503502       -0.05637000640393       -0.57084134086649
C            2.87831107707568        1.14166271569338       -0.20125760489880
C            4.23901876967044        1.08065314901000        0.04086127055882
C            4.98774970230380        2.19554659054730        0.42968747980785
C            6.42176266204984        2.04926053315275        0.62025110028112
C            7.28159394424657        2.81664322471042        1.32241043224195
S            9.00620741619672        2.45962388019348        1.30457400820780
C            9.42032196087087        3.84596820017558        2.34063267644533
O           10.53647535297559        4.15830591426445        2.69030225909247
N            8.24447306519381        4.48361523498610        2.66888606653028
C            7.04289700999728        3.97784085615970        2.18166211820951
O            5.95673118264982        4.44843785118139        2.45827773846698
C            4.31609706485106        3.40882899205842        0.55149960506923
C            2.96620768720903        3.50430253326069        0.30969211161571
C            2.21781028244519        2.39383021875171       -0.06760026378444
O            0.86676267675950        2.49688397164601       -0.31472843477474
H            0.48042211779857       -1.00553019979936       -0.90001707353930
H            0.58329556045851        0.68559273140421       -1.47601276676853
H            0.43792747360311        0.34515914776951        0.27310717696177
H            4.72496516517858        0.12847756825452       -0.06989039803858
H            6.86261652934837        1.19820133497831        0.12513392481867
H            8.24823740169238        5.28306151210171        3.28316330684387
H            4.86662119062817        4.28615099738244        0.84039426276739
H            2.47372049175328        4.45478585616848        0.41339790465581
H            0.55875173702264        3.41208330050556       -0.19359689503571
