50
 energy: -10.085314671197 gnorm: 0.000944048562 xtb: 6.5.0 (97a52f5)
C            0.48425150789373       -0.69283401160464       -0.17917494160802
O            1.73890091380992       -1.18444914826193        0.23417604308632
C            2.69969988360885       -1.27430836308735       -0.78075074396037
C            3.97332108984655       -1.71958345315867       -0.42284757076188
C            5.00631625400817       -1.82568123189597       -1.35387060275559
C            6.30459872184492       -2.31102385795177       -0.93569536105962
C            7.51100391621441       -2.04564486536367       -1.53569901882955
C            7.78909303445141       -1.07420977649981       -2.55229937107784
C            9.13593412557173       -1.05169349487592       -2.79144803379624
C            9.83544557905926       -0.17491835085781       -3.74368876507890
C            9.22547111879905        0.97538977965578       -4.24369256513365
C            9.88483531749823        1.79560181083894       -5.13303177893885
C           11.16558766267308        1.48549373089902       -5.54355269833427
C           11.78600345130964        0.35120964942350       -5.06064008607992
C           11.12997846669819       -0.47051470729466       -4.17028321029517
C            9.75220402763712       -2.01734440126053       -1.92869570464137
C            8.79897594880532       -2.62790021046748       -1.16721275164752
C            9.04668845154199       -3.68572811043605       -0.17305221726100
C           10.18048133262218       -3.64420953241606        0.63891833919155
C           10.42329026913939       -4.63638712279619        1.56297261645707
C            9.54276172032542       -5.69174676163263        1.69329730721514
C            8.41947733234036       -5.75465517660678        0.89297491218940
C            8.17386750396479       -4.76485154969656       -0.03279202852487
C            4.72448599432927       -1.50722707995953       -2.68191425631963
C            3.46272382106611       -1.06712175060060       -3.08357540078983
O            3.28697230470262       -0.78182989643745       -4.44308114798763
C            1.98097174381069       -0.38907561235997       -4.80186201258696
C            2.46586369080057       -0.94837060545545       -2.11625576434226
H           -0.17510696431638       -0.64376407780818        0.68860066943398
H            0.04354027821997       -1.36432715067892       -0.91742466941777
H            0.59373506658131        0.31068777388611       -0.59290233083916
H            4.15595035854988       -1.97237600567621        0.60494998298768
H            6.32125877341409       -2.91790439064314       -0.04776134779846
H            7.06976941490484       -0.41803735304339       -3.00645773920034
H            8.23127381802373        1.22808569777744       -3.91982443367171
H            9.40050189743637        2.68260450973054       -5.50773184442572
H           11.68019728351586        2.12810682563970       -6.23916636862051
H           12.78539219321801        0.10730216711506       -5.38240990378240
H           11.61436936565509       -1.35868392814971       -3.80447349993041
H           10.80564483604528       -2.23126669378565       -1.88445960641434
H           10.86402099277011       -2.81865078234880        0.54028151312465
H           11.30234834296825       -4.58932107594868        2.18483633056837
H            9.73407007526160       -6.46762865440921        2.41655128527421
H            7.73594441282414       -6.58225574044855        0.98996859770158
H            7.31418741144034       -4.83127034842785       -0.67687282944410
H            5.47199982093602       -1.64574872682504       -3.43855243297520
H            1.95119586393407       -0.21947156748432       -5.87892523205536
H            1.71538611562774        0.53849371451712       -4.29290584141159
H            1.27097390458622       -1.17863691517467       -4.55154469697517
H            1.49325155402003       -0.60675317763782       -2.40743878845983
