45
 energy: -7.767507368773 gnorm: 0.000418515373 xtb: 6.5.0 (97a52f5)
C            1.17564964674379       -0.32787190739256       -0.11691102722826
C            2.46868638704912       -0.09594158435219       -0.01882403503898
C            3.22965868236358       -0.28898993376209        1.24155021177041
N            4.51428436700070        0.40832976861750        1.26701984902456
C            5.45173879771412        0.33706157094457        2.28667075780371
C            5.28427747235728       -0.51758165019088        3.39587787975411
C            6.21906494702843       -0.57249604883844        4.38464195306250
C            7.38006039026207        0.22332679952969        4.32804961675694
C            8.36994488724778        0.18494717219487        5.34059970850763
C            9.47631328839526        0.96263112750058        5.26242557165692
C            9.69325313964356        1.84469197576224        4.17270547279373
O           10.82098100306246        2.59967588726014        4.15465393075739
C           10.96052633739521        3.42769575940858        3.07755721632240
C           12.08809067986375        4.24387383876436        2.97981239160239
C           12.28674006738737        5.10301054835876        1.91004661289479
N           13.42408110014022        5.90940669999519        1.83483604897210
C           14.39644831614290        5.97398374361512        2.92716864450910
C           13.70440555091694        6.74212773142638        0.66397759336631
C           11.29871879190312        5.13726355908173        0.89799703705581
C           10.19179366553416        4.35442169644784        0.96896454795789
C            9.97859837717236        3.47399987337006        2.05274756248437
N            8.87156229218998        2.72219364266523        2.08043921224848
C            8.73557528478947        1.91847222049072        3.13532471024306
C            7.55970220201517        1.08654596342895        3.22388383046189
C            6.59131776603608        1.12442737359068        2.22703468826374
H            0.64618155027605       -0.19973544254989       -1.04040757352488
H            0.60764546845357       -0.65522382563046        0.73049379898431
H            3.02159187599561        0.20785673816885       -0.89219736206328
H            3.41368780572773       -1.35684865774224        1.39714320636760
H            2.63694953014910        0.06074904341593        2.09318233445983
H            4.61161555834358        1.10090737541188        0.52893563746429
H            4.40233334269262       -1.12925144940823        3.45699545809469
H            6.07870267234774       -1.22902894731227        5.22573122253393
H            8.23022651757490       -0.47540668403061        6.17891049897672
H           10.22438686243916        0.92916273349977        6.03452724298065
H           12.81636909530582        4.18075385797775        3.76484603635138
H           13.88763902825027        6.17932608026264        3.86647221951732
H           15.12071581019111        6.76745948925591        2.75810868108830
H           14.92991275016893        5.02902432844956        3.00406394969269
H           13.60960127490107        6.15224549613376       -0.24491741544894
H           14.71712387275119        7.13693333698359        0.70064278562585
H           13.00743067046691        7.57664211571805        0.62849530252995
H           11.42295684675544        5.80473463077628        0.06452939092610
H            9.44619338239251        4.39235067618631        0.19413429755285
H            6.73685264446178        1.78298327651631        1.39258030188594
