44
 energy: -9.238803340022 gnorm: 0.000448389492 xtb: 6.5.0 (97a52f5)
C            1.99885314062440        0.25204972328069        1.01362001669342
O            1.83650144726237       -0.38329329342483       -0.23621831377604
C            2.70988100148354       -1.44794018737813       -0.48746443471000
C            3.66726353653731       -1.86570213692834        0.42761731529205
C            4.53128887322411       -2.92532376732788        0.17503373264028
C            5.48371097562999       -3.32014160808907        1.13345043478181
C            6.33587863994912       -3.74486985804774        1.89922973124751
C            7.33466322770667       -4.29669597347296        2.72703375734413
C            7.30527369643676       -5.64592093103805        3.06512506311436
C            8.28827348985785       -6.19417987861519        3.86118018949091
C            9.31569179877612       -5.40351381690138        4.33418062811784
C            9.35832155320495       -4.06275573240725        4.00939529021922
C            8.37702803831498       -3.51324884152191        3.21162169003217
C            4.43979261317182       -3.60237309454665       -1.04871770498484
C            5.30048649569743       -4.67932403151204       -1.33129776409557
C            6.09096375843320       -5.59952587909291       -1.47664717745665
C            7.03282387539236       -6.64487463972078       -1.55838010227834
C            7.87466229892569       -6.91378070155406       -0.48389164307632
C            8.79770564265177       -7.93528137499504       -0.55159835455986
C            8.89441498715565       -8.70443993514400       -1.69349393043246
C            8.06639112596431       -8.45013854566289       -2.76818459877178
C            7.14256992489206       -7.42864976132131       -2.70220726173275
C            3.48569016455001       -3.19308927858134       -1.97123294958543
C            2.61672362270212       -2.13830365839208       -1.73198013396212
O            1.70669236126145       -1.84552477247682       -2.76115330500810
C            0.85029069528760       -0.75631758093965       -2.53191057785026
H            3.00166484404446        0.67437548605354        1.09100599663832
H            1.81773583157501       -0.45921565606201        1.82059093750391
H            1.27156670096563        1.06132812609221        1.09016297074350
H            3.75727245817513       -1.36518824686287        1.37274598559452
H            6.50024756485288       -6.25869480732338        2.69630702021008
H            8.25413650979751       -7.24116514939485        4.11445909142488
H           10.08343467846142       -5.83241229706498        4.95718240879843
H           10.15996971395776       -3.44468210927420        4.37927833808937
H            8.40798321407121       -2.46845808809011        2.95331611032709
H            7.79162966145581       -6.31247428741239        0.40529571300880
H            9.44389752788649       -8.13325744733501        0.28777695275266
H            9.61602280607270       -9.50313270167017       -1.74661477320635
H            8.14137161595582       -9.05103891795801       -3.65969701133326
H            6.49433072660631       -7.22675157292881       -3.53789266217398
H            3.41071427748863       -3.70991251290993       -2.91010817828411
H            0.20401536728635       -0.61664512028572       -3.39960340162764
H            1.44465516462707        0.14456127554499       -2.37238170777751
H            0.23846435161881       -0.95669641752867       -1.65119338677236
