24
 energy: -4.284959847692 gnorm: 0.000402349077 xtb: 6.5.0 (97a52f5)
C            1.08798761942312       -0.62051602635370        0.19079277029465
O            2.47523328987785       -0.42211860787127        0.15907625043824
C            2.89259379840748        0.91746869585461        0.13681317343709
C            4.25827740746312        1.14760062163924        0.04825457121645
C            4.78542211134017        2.42752225160238        0.00257471055502
C            6.25968596447403        2.59932144284002       -0.08407378822091
O            6.97208481465519        1.78316809196748        0.47202911719046
O            6.74539916357360        3.65420781596461       -0.79832218966066
C            3.92845988246563        3.51524559966673        0.07432686325135
C            2.55526862875880        3.33747036146214        0.17014239628148
O            1.60796230831890        4.36600437961542        0.24619624130087
C            2.13838234883579        5.67041483794303        0.20172233140669
C            2.02885062173058        2.02959292152173        0.19867565703169
O            0.66212290032651        1.88844543675119        0.29303751887183
H            0.88621774282068       -1.69313748658113        0.18708833506436
H            0.64091520416099       -0.15212350836889       -0.68837319603917
H            0.68480784017979       -0.16714654908758        1.09859207971498
H            4.92355285445973        0.30353463491500        0.01882030717300
H            6.03950740833867        4.15016936187802       -1.25223279520267
H            4.34116621221836        4.50568147760613        0.08570842251487
H            2.80707781791932        5.82522027330387        1.05000342798341
H            1.30748340859896        6.37467235796035        0.26794583386983
H            2.66233288594606        5.82217933985638       -0.74337810628932
H            0.25570776570537        2.77600227591224        0.32401006781725
