20
 energy: -3.711013122117 gnorm: 0.000424216374 xtb: 6.5.0 (97a52f5)
C            0.98407133700845        0.00225491903655        0.07850898695846
O            2.38501644008822       -0.03108066029483        0.09401279029420
C            3.02267158784980        1.21757080499653        0.08132712173289
C            4.40579342881695        1.20435549869889        0.05968804160989
C            5.16798511729692        2.36611724429341        0.04365236130577
C            6.64766014192586        2.22317429255895        0.02142158205168
O            7.10123780263656        1.09183520021799        0.02581354743936
O            7.44871320949379        3.32608183148246       -0.00313925825891
C            4.50434355243269        3.58376031648698        0.05032074122131
C            3.12814419292497        3.63250270776942        0.07325573151456
C            2.35912609404069        2.47380036633663        0.09012243591156
O            0.98294570529035        2.53298508927236        0.11683885053088
H            0.60790547385733       -1.02223470163934        0.06898467336363
H            0.65068512407477        0.53211166494293       -0.81595849437108
H            0.63158927088037        0.52271394399579        0.97129787828249
H            4.90925554831913        0.25404331670529        0.05486287614953
H            6.95185768497385        4.16335574851131       -0.00721934027577
H            5.05517684198233        4.50617087093319        0.03899092103552
H            2.63144726716649        4.58640091404571        0.07884617187345
H            0.67508417894052        3.45641063164979        0.13071238163056
