61
 energy: -12.612878174764 gnorm: 0.000881379188 xtb: 6.5.0 (97a52f5)
C            5.27477206564518        1.52589432506018        3.87863057071273
O            4.19028022941131        0.69570334001334        3.52251361677235
C            4.49356501487650       -0.66247481831271        3.36365633446275
C            5.76154299935432       -1.16411048061122        3.62577517546664
C            6.06522913329870       -2.50804301859669        3.47866309516374
C            7.42102913863718       -3.02477921344862        3.75480340015998
O            7.71177969092623       -4.17992801067021        3.50357140333326
C            8.42722048063139       -2.09062213890240        4.33904465071058
C            9.46378650263924       -1.61202143814645        3.55506061466805
C            9.59535433949006       -2.06228923938806        2.14129459987310
C           10.38541428023533       -0.67506034894289        4.09270127008338
C           11.44848972011851       -0.13847666618785        3.30815037491660
C           12.32217947148441        0.75766818861687        3.81843798507393
C           12.21631092424087        1.20444653005253        5.16607405428678
C           13.11834551862768        2.12971217127163        5.70180943298858
C           12.99701558742152        2.54713641681725        7.00227703836952
C           11.98110763308618        2.05940360875594        7.80512790668537
C           11.05580517267827        1.13760961823669        7.32691525777993
C            9.97649118814761        0.60821896932401        8.15696607757508
C            9.79741035520938        0.98644295226607        9.48324458923535
C            8.76623546542084        0.47031458183197       10.24931731091842
C            7.88675753421513       -0.43506082391933        9.71540167658150
C            8.01764713614924       -0.85282221910722        8.38553761745900
C            7.11885794038265       -1.79305446670750        7.80942640403839
C            7.25540064968069       -2.18826954536648        6.52301325213037
C            8.29426455833523       -1.68083237816835        5.69819256095228
C            9.20451592713331       -0.75617428858896        6.23876142367707
C            9.06954452731256       -0.32968687209788        7.59682261797321
C           10.25361385262217       -0.24609324964288        5.43151555085516
C           11.17462465719671        0.70030169504888        5.98009522227043
C            5.07071562667929       -3.37305680349808        3.06491592715109
C            3.78055105789024       -2.93747113188721        2.79703825627857
O            2.87364494822809       -3.93467070050726        2.39502620243726
C            1.51629234980123       -3.57450377312823        2.41341192623833
C            3.47544640610198       -1.55555647922179        2.92935811668412
O            2.17684350099021       -1.15420740700292        2.61305157645153
C            1.94722255902587        0.23086278788704        2.53518284118117
H            6.06151832534332        1.45630560345760        3.12575181892819
H            5.65477557695468        1.24276751177462        4.86138587615582
H            4.92069835017400        2.55690908775634        3.92332517624186
H            6.53876242182797       -0.50365814610543        3.95741613936065
H            8.87059943684384       -2.84018302995138        1.90163502369962
H           10.58585635283963       -2.47763965137011        1.95467134359007
H            9.43227409454355       -1.23362056922667        1.45167444357782
H           11.55205413713619       -0.45235790359986        2.28473875558570
H           13.11579340938445        1.14987266934502        3.20637478330581
H           13.91011160762720        2.51132684869100        5.08061368884000
H           13.69838605819855        3.26082311793599        7.40248548805916
H           11.91442792806085        2.40766057660308        8.81931476464444
H           10.46892227569690        1.69391229752104        9.93359392225603
H            8.65468067381259        0.78316779144218       11.27460773750353
H            7.08680107577116       -0.83425040978684       10.31472157699162
H            6.32357023268485       -2.18875113683980        8.41696546645714
H            6.56907499157625       -2.90390647117542        6.10566765171839
H            5.29972264127224       -4.41616992141848        2.94974432401234
H            0.90654842293361       -4.46516614904164        2.25487329643700
H            1.32547667494026       -2.85562624538968        1.61468850652356
H            1.26940262611144       -3.12935195645313        3.37915086010091
H            0.93540664114890        0.40632054249781        2.16744681318680
H            2.66878975826974        0.68114806578463        1.85157090264163
H            2.05433814348763        0.66869780440751        3.52887570863656
