53
 energy: -10.312635691555 gnorm: 0.000374748326 xtb: 6.5.0 (97a52f5)
C            1.70230444502469       -2.02015904473091        0.39782423888085
O            1.59205087557729       -1.09860246266441       -0.66588764496578
C            2.76614402437359       -0.88318330120680       -1.40339054605199
C            3.93312641877531       -1.59715148725106       -1.16612334593875
C            5.09483406604315       -1.39215777639779       -1.90584272913120
C            6.30942968974298       -2.14642161266265       -1.62925079619205
C            6.43511902311913       -3.21274418416494       -0.80505983385662
C            7.80118792864425       -3.68770691076575       -0.77984936215278
C            8.24442649743523       -4.82685273195434        0.05325706646852
C            7.74919285429249       -6.10962173627186       -0.17766969848304
C            8.17087429995569       -7.17358479182452        0.58840010165425
C            9.08827451342848       -6.97705491759023        1.60162982578074
C            9.58242887056524       -5.71169701816777        1.84988314030370
C            9.16449087480522       -4.64483394525922        1.08567776934968
C            8.57188910290793       -2.90876245177378       -1.61188090423546
C            9.98395942430836       -3.05309703043249       -1.94135299213402
C           10.69156531067641       -4.23019623932189       -1.67732121850102
C           12.02171852686822       -4.35058032537468       -2.00755010927802
C           12.68295598085142       -3.30148021698499       -2.61470028921672
C           12.00436290208263       -2.13189573402639       -2.89484007061985
C           10.67310554035481       -2.00853798867168       -2.56722497729526
C            7.66746354701776       -1.86189732776917       -2.20302436729975
C            5.06305771270419       -0.44561173713811       -2.92468750051694
C            3.92000471307260        0.28099101264046       -3.22172228597436
O            4.00766881400160        1.19351874759058       -4.29316294817631
C            2.79539772538911        1.44973173921893       -4.96009858802801
C            2.75189728323286        0.08980037020655       -2.43841124787898
O            1.63987462887158        0.88585890543057       -2.73322199274191
C            0.69598029627583        1.03417532601069       -1.69883663063734
H            2.47292386203405       -1.69412126778202        1.09775964231651
H            1.93185695222088       -3.01323345773445        0.00938011809755
H            0.74761373206436       -2.06204548427782        0.92362816477440
H            3.95257178731214       -2.32833328127422       -0.38269722648713
H            5.63683655525946       -3.66683261149639       -0.24689256606234
H            7.03744688176080       -6.25809197223249       -0.97148147548341
H            7.78481222041036       -8.16119615106103        0.39616770148227
H            9.41747333215502       -7.81113915798074        2.19953202491866
H           10.29713723422493       -5.55894980135291        2.64179889339781
H            9.54822248434049       -3.65672149822530        1.27295693748004
H           10.18175815729115       -5.05904370325265       -1.22236582469772
H           12.54844031680298       -5.26614989344834       -1.79356081068534
H           13.72519225291439       -3.39621058301581       -2.87215522369223
H           12.51902837967079       -1.31362366187719       -3.37130466635626
H           10.15183476358432       -1.09358093520895       -2.78825423010455
H            7.65580174316280       -1.93371542780981       -3.29683879615095
H            7.99881877433570       -0.85388367512294       -1.92780586808160
H            5.94040335197312       -0.27312027280022       -3.51917511556287
H            3.00729244093800        1.89958655784026       -5.93100596590799
H            2.19666000305758        2.14052626972471       -4.36517988730165
H            2.24733880353112        0.51720047556052       -5.10330946484801
H            0.01563530545945        1.84985970205893       -1.94688027556833
H            1.20807342008124        1.25940686306062       -0.76227678903557
H            0.12712135501925        0.10923783902094       -1.59599135955615
