60
 energy: -11.990029858859 gnorm: 0.000338111242 xtb: 6.5.0 (97a52f5)
C            4.24907030534011       -0.86052130400638       -0.18519830011187
O            5.22642840328149       -1.84484685324868        0.04274210123163
C            5.67902948095863       -2.50098973157405       -1.11662253033161
C            6.17031982299097       -3.79434540683413       -0.97886684053543
C            6.64252582465649       -4.52167183825386       -2.05555802456950
C            7.15654676898375       -5.93154350162141       -1.85943535689413
C            6.01816136932561       -6.90978873779153       -1.50661482602563
C            5.58171899082124       -6.76730543224343       -0.07282840918719
O            4.41028966161594       -6.93542719864819        0.18643134712660
O            6.52652009632311       -6.45447821379209        0.88239082986998
C            7.84928614446954       -6.22052944778602        0.49983952204978
C            8.22291426416857       -5.98488641692854       -0.80166706012391
C            9.59088624605946       -5.76319475519778       -1.16417478854636
N            9.87335567324156       -5.56158622002336       -2.44644552013410
C           11.17113007180590       -5.37262612521908       -2.71982411213495
C           11.56977954496131       -5.14698053166148       -4.05545199909256
C           12.87800411465406       -4.95942165345122       -4.38184616222121
C           13.87967459420204       -4.98847108640145       -3.39661640245859
C           15.30554412631940       -4.76300455984584       -3.75867626218271
C           13.51472859915967       -5.19109698720322       -2.09322620727588
C           12.17039904482588       -5.39084585086498       -1.71262897970555
N           11.87855394357521       -5.58926891246210       -0.41653635959493
C           10.59600345239587       -5.77170452219926       -0.15307914312297
C           10.19838754930430       -5.99193393456889        1.22109790780468
C           11.14262342506300       -5.98910697916661        2.25225095248599
C           10.76556880580174       -6.19537715934724        3.55293399657526
C            9.42963058735603       -6.41245831927792        3.86523798732740
C            8.48612595420136       -6.42126742083128        2.87228269548873
C            8.84830093629528       -6.21280961733647        1.54022969540991
C            6.61124875431834       -3.94544714246296       -3.31187378312871
C            6.12309708410962       -2.65786107585710       -3.50449327118870
O            6.07986167332252       -2.10222487437722       -4.80278124355584
C            4.78332599369200       -1.70308851966467       -5.18696913119743
C            5.67574621411052       -1.91329211085287       -2.39603112191971
O            5.26500009681316       -0.57737391707850       -2.58568235986989
C            6.33792062227427        0.25298750524720       -2.96507416802468
H            3.77407816515727       -0.60639048886377        0.76355421048388
H            3.49940078994612       -1.24187444087132       -0.88040399709543
H            4.72416913376333        0.02747342323072       -0.60388861266119
H            6.16927089795328       -4.23584641595505        0.00040409817542
H            7.62175771957235       -6.25359672296986       -2.80472432582294
H            6.32854816779365       -7.94439010404842       -1.67898791009837
H            5.15531414471544       -6.72618809915396       -2.15356795236890
H           10.80867045162752       -5.12634535780113       -4.81534132565467
H           13.15918472137496       -4.78557018411234       -5.40614865805018
H           15.96711664562850       -5.37226516494164       -3.14219618900257
H           15.57931673254776       -3.71723252301328       -3.61699883801355
H           15.49346587521796       -5.02269622714601       -4.80075310655900
H           14.26691053035324       -5.20122445701653       -1.32589159710939
H           12.17537829966780       -5.81994244586168        2.00356083774030
H           11.50548554985346       -6.18930230529374        4.33634085495309
H            9.13659525352722       -6.57303763897557        4.88961879630735
H            7.44751487227434       -6.58756299710079        3.10160873249316
H            6.96115101704172       -4.49458564305968       -4.16602124211500
H            4.11953528748088       -2.56880480988111       -5.17066546299751
H            4.82520905772457       -1.29493958087119       -6.19770977969356
H            4.41029931447124       -0.94123524015735       -4.50157077384677
H            5.96245791253564        1.26371200827076       -3.13048328705938
H            6.78652511750124       -0.12534182760393       -3.88500972386568
H            7.08426610155403        0.26518609608259       -2.16931942041368
