76
 energy: -16.478597701439 gnorm: 0.000852530149 xtb: 6.5.0 (97a52f5)
C            0.53082871896919        2.73256299428907       -0.67281823729649
O            1.84110474499735        2.21016426815891       -0.55085826586426
C            2.44720537997384        2.44446227356300        0.70232737717406
C            3.75626587391907        2.91313320517263        0.69382903796751
C            4.43557566820383        3.28036042608106        1.85102454245251
C            5.82350707488229        3.71849721290127        1.75338637357140
C            6.84895121293904        3.32556966007703        2.55200381225307
C            6.69043107636483        2.36725582906322        3.56351273974780
C            6.50787245097992        1.54210228030182        4.44763640919321
C            6.24028360286965        0.61902869328350        5.47762836844389
C            6.32513213135625        1.00314551252747        6.81221800078026
C            6.05045284173796        0.10578832238927        7.82226116720753
C            5.68556739345290       -1.18940677393156        7.51573632741559
C            5.59486653526251       -1.58564975455953        6.19678383768383
C            5.86875180011834       -0.68947869552787        5.18526345552235
C            8.13477669110858        3.83412378394769        2.31626793862826
C            9.26025781931316        4.26832668246493        2.11226015941359
C           10.55861288802660        4.76291730270012        1.87599647484188
C           11.61836394528461        3.89327928464766        1.63683810246120
C           12.88851466601724        4.37763809295160        1.40549793186675
C           13.12161904815670        5.73790425029958        1.40998447461299
C           12.08159102343044        6.61386709915051        1.64617343536741
C           10.81068089757273        6.13142600693644        1.87738127630634
C            3.73472800740034        3.25212238555437        3.09189171856872
O            4.36343547748025        3.78235423483750        4.22261869798715
C            3.65435165223803        3.62716923830410        5.43247492912225
C            2.44897483903443        2.72199019561986        3.10858992140380
C            1.80146938376055        2.26471656235624        1.96195620571796
C            0.51236366000513        1.59560067438753        2.11394439527936
C            0.15432528215317        0.41211937491735        1.55265210838680
C            1.03620300181638       -0.31938862465560        0.74539764129122
C            1.84373876541732       -0.85910991287310        0.00211378155633
C            2.81271870013779       -1.32237051600468       -0.90885562217550
C            3.13423365347484       -2.67037896537577       -1.02508339953722
C            4.08973201270414       -3.08637067047302       -1.92850537410221
C            4.73694835421685       -2.16464177037841       -2.72724570988941
C            4.42833261459597       -0.82338984702870       -2.62248821874567
C            3.47375455162538       -0.40658375676501       -1.72048865828288
C           -1.11890335999179       -0.11740973476809        1.80814616402932
C           -2.22867852000347       -0.58602266924742        2.02125814382724
C           -3.50971669710166       -1.12207008845359        2.26128994992261
C           -4.58446319208980       -0.29104237993609        2.56268058143244
C           -5.83766651049303       -0.81697693373188        2.79580603592392
C           -6.03847892364664       -2.18094683486591        2.73182158101965
C           -4.98301261463156       -3.01889789634927        2.43422557363418
C           -3.72917458580625       -2.49486873083509        2.20057980399790
H            0.33177674481372        2.94355174134473       -1.72423311466519
H            0.44137332483768        3.65684003083084       -0.10032828513821
H           -0.19782508178761        2.00544644596095       -0.31599583168547
H            4.25516618823902        2.99906400321845       -0.25367341383282
H            6.06874613758948        4.37257351810308        0.93184414409513
H            6.60557557479452        2.01603067983689        7.04573947978166
H            6.11956337621370        0.41689484713322        8.85173289599517
H            5.47053440862383       -1.89029173745440        8.30567354163240
H            5.30836760203120       -2.59641245730474        5.95678867540188
H            5.79503305113315       -0.99268402886155        4.15485403938429
H           11.43214420721081        2.83282168897028        1.63489789753835
H           13.70013930334764        3.69302954802463        1.22103680877071
H           14.11467433924930        6.11569872763503        1.22933448632608
H           12.26279252874499        7.67619756833037        1.65051966569995
H            9.99635558825706        6.81107739426155        2.06215933922557
H            4.25758351773424        4.03345631896527        6.24526528275172
H            3.47421297364569        2.56901648532973        5.62707860599213
H            2.71186886389243        4.17433455390079        5.38706391913044
H            1.92937614302985        2.62906748390906        4.04326858923787
H           -0.19230775876136        2.04610661002451        2.79457989976129
H            2.62714937204689       -3.38501711329587       -0.39970121526371
H            4.33161543459656       -4.13323445154178       -2.01094321733017
H            5.48303002065248       -2.49210472030357       -3.43272170184206
H            4.93305176778690       -0.10286791219752       -3.24503342281861
H            3.22048131566932        0.63564762918172       -1.62565894254134
H           -4.42325032059828        0.77239676865838        2.61165504158406
H           -6.66125507536422       -0.16179251212694        3.02799160448851
H           -7.01834163983122       -2.59119801294689        2.91366722019062
H           -5.13897269559030       -4.08408103479528        2.38372467471930
H           -2.90328825125323       -3.14495936148503        1.96711834296126
