49
 energy: -8.473814171241 gnorm: 0.000798155750 xtb: 6.5.0 (97a52f5)
C            1.22436135033830       -0.09035381365935       -0.06898147267674
C            2.53917892369685       -0.01749172915814       -0.02930449950629
C            3.33620323859542       -0.39736113085551        1.16507455363119
N            4.61634923320374        0.30097039726306        1.26138967568739
C            5.53432971463101        0.15817076612830        2.29153614216296
C            5.36680289298155       -0.79758368994961        3.31482122969242
C            6.27975266141134       -0.91497121791536        4.31855193191754
C            7.41756742156313       -0.08535824816941        4.36335507142324
C            8.38056859395786       -0.18239848700473        5.39765497620945
C            9.46425458768102        0.63022008393592        5.41819591861762
C            9.68496112711948        1.60675333629553        4.41297120870957
O           10.78819370527554        2.39382655876604        4.49395947740643
C           10.93259705484206        3.31396263907759        3.49460718767460
C           12.03055883970976        4.17488951908759        3.50511473549092
C           12.22615906760216        5.12498785017804        2.51647881407797
N           13.32313445987931        5.98292287917091        2.55614076458199
C           14.31479517862595        6.04622581604151        3.66146653305944
C           15.19338345691263        7.28068745307450        3.40034794655260
C           14.99504905410383        7.62468928290944        1.91147637906426
C           13.65260266243942        6.98885842008080        1.51244490015094
C           11.27981405609565        5.20573560772319        1.46997204841520
C           10.20157023080368        4.38147926566170        1.43743352724885
C            9.98310281392188        3.41220850082753        2.44229815459269
N            8.89893072378559        2.63050476462203        2.37454568871482
C            8.75508047480810        1.73999340324110        3.35634962727213
C            7.60027724494560        0.87453854822205        3.34262780693968
C            6.65403527487672        0.97491343597499        2.32897919495795
H            0.66906375600960        0.17433888913946       -0.94708816542623
H            0.66284923032270       -0.41846594128738        0.78231892295092
H            3.08128734003094        0.29162899085191       -0.90752260039527
H            3.53012576908491       -1.47486209300456        1.15199563193213
H            2.76644780401973       -0.18781696923995        2.07616562594882
H            4.70235842279998        1.07058739582668        0.60250252410467
H            4.50335371874147       -1.43787458219302        3.29618448503318
H            6.13898883165228       -1.64772617644575        5.09399392699767
H            8.23774840451033       -0.91421222695780        6.17361670803563
H           10.19125139574646        0.55295467136342        6.20707486967629
H           12.73624771260421        4.07947246342423        4.30739191912291
H           14.90181345814280        5.12351666666144        3.65175523692778
H           13.79206972434939        6.10714737443078        4.62043499172229
H           16.24598868495273        7.09310010024666        3.64447908466297
H           14.86914239338461        8.11776959422243        4.02923863874014
H           15.80948174525762        7.20027785353653        1.31320763253767
H           15.00487095008986        8.70674522985842        1.73276791421600
H           13.69998098770453        6.49922434286957        0.53531612497923
H           12.84945551805909        7.73062613419060        1.48262898848577
H           11.41744908217538        5.93762764904502        0.69458956349998
H            9.48402456307439        4.45275120671252        0.63893866130948
H            6.80153646347896        1.70574921518179        1.55755179286942
