32
 energy: -6.005848471663 gnorm: 0.000475101957 xtb: 6.5.0 (97a52f5)
C            1.34277246657850       -0.09167484439584       -0.33333718279860
O            2.56575180329881        0.26374608570151        0.27020070322435
C            3.04241099424961       -0.62355516557259        1.22205807060319
C            2.41724512974147       -1.81157782209938        1.60559195217170
C            2.96262346380722       -2.63901727004695        2.56106464558311
F            2.28593205551805       -3.74481878831058        2.93297235577277
C            4.18378288596881       -2.30527574184933        3.16213143946587
C            4.82277010912456       -3.13431451467049        4.20181871591543
O            5.70267980765192       -2.64789961773170        4.88469749585796
C            4.41846387384566       -4.54613688650643        4.40998864036622
C            4.37494347214081       -5.45523130044475        3.35633597799807
C            4.03092511018083       -6.77079720899971        3.55555402404896
F            4.00621190983461       -7.61811782312232        2.50772861197709
C            3.72016481090765       -7.22796989686786        4.85011691510743
O            3.35452271739264       -8.53151995606442        5.15293727347944
C            3.25274015801624       -9.40165340930966        4.05726350190451
C            3.78180504968729       -6.31398621199353        5.90269878887702
C            4.12168921654400       -4.99715038546598        5.70049165949624
F            4.13309969531587       -4.13929667315318        6.74021015625487
C            4.79994492935633       -1.11658287710918        2.79547753238915
C            4.25774136213184       -0.28570033635585        1.84621388666328
F            4.89053770468353        0.85445460641730        1.49992568950857
H            1.09702999534005        0.68515839263652       -1.06061251278141
H            0.55879608693169       -0.13610638448263        0.42550822026846
H            1.45159327942806       -1.04709579757221       -0.85062122424095
H            1.48306558101127       -2.10728745996910        1.16618704755069
H            4.60603211914810       -5.12938309626763        2.35715764730639
H            2.93181340517935      -10.37904908571879        4.42426731635421
H            4.23045238028017       -9.48300111654099        3.57588625299991
H            2.51723377762749       -9.00358090186583        3.35386106822231
H            3.54873586894467       -6.64962568023332        6.89701375441820
H            5.72366878013127       -0.83654283203598        3.27260157603671
