33
 energy: -8.932542962336 gnorm: 0.000934015604 xtb: 6.5.0 (97a52f5)
C            1.70184289639478       -0.68787870485509        0.80924898905842
O            2.54097109565455        0.02520369041571       -0.07489406243221
C            3.07956962633342        1.21702473461915        0.45542142307701
C            2.82761948896210        1.68854104876948        1.74778687042702
C            3.37963333580836        2.87597808198156        2.23389426255222
N            3.10496405742880        3.29870920160066        3.57004278450762
C            4.20425021779794        3.55027851916210        4.50193181514722
C            4.95421687724615        2.26906751681593        4.84374374635164
O            4.28662616263437        1.34826021401033        5.33136796059074
O            6.17133281550604        2.26601199053304        4.61275164297677
C            1.80292302057362        3.04337886904287        4.19243238165327
C            1.26425496781081        4.27905525852446        4.90161624136708
O            0.59843737322085        5.06227118691113        4.21153383790478
O            1.54127381043379        4.39320957754442        6.10257971674904
C            4.22864637014185        3.65266962903712        1.39867265023845
N            4.73784643004142        4.83275700595232        1.85812972054963
C            5.53034033777549        5.51008685078040        1.02750907352349
C            5.85522334116019        5.11490752253376       -0.25411140248839
C            5.33539537457140        3.93533702444006       -0.74672979974631
C            4.49704213064347        3.17359531621891        0.07790627719644
C            3.91766037363148        1.97042699654921       -0.36302299753194
H            1.33343643969333       -1.58209004212807        0.30656198668480
H            0.84765891334031       -0.07435061558308        1.09594840978516
H            2.25925412049022       -0.99291415629991        1.69486224390686
H            2.21331092354676        1.10845417238641        2.40915845104569
H            3.81210381966851        4.00218044904295        5.41408519147656
H            4.89106432172078        4.26951627042315        4.05466457856477
H            1.90305500057301        2.22071695248498        4.90283249328582
H            1.08624485935874        2.73409386169449        3.42961600085746
H            5.93632108616878        6.43543165541498        1.40463734764401
H            6.50553503691185        5.72176545487635       -0.86523029498404
H            5.56253225715822        3.59878823854177       -1.74517048403409
H            4.12041311760622        1.61668622855775       -1.35785705589974
