64
 energy: -14.262208760801 gnorm: 0.000529912590 xtb: 6.5.0 (97a52f5)
C            1.53483857064858        0.44812278041573        0.15016685584630
O            2.88680769263217        0.22742352666604       -0.20229471843538
C            3.39087351397904       -1.04828345600254        0.10791743420060
C            4.64305089349017       -1.10154825825879        0.71378466403396
C            5.20267889820702       -2.29217478307384        1.14783894594468
N            6.49836322403864       -2.31152998428636        1.75738259430400
C            6.90985173012678       -1.23604548724603        2.60919271876855
C            8.22319563846988       -0.76386176293188        2.57446973325813
C            8.61794080209083        0.26071070622754        3.39181509996907
C            7.72946936734534        0.85349328885856        4.29346372549032
C            8.18369397732563        1.93718776683695        5.15844689467958
C            7.97951027881612        2.02824037776059        6.49549612306648
C            7.39072615974327        1.01474551659403        7.25486251337152
N            6.93487232092418        0.16953293968212        7.90956677058589
C            8.46193257921675        3.14424769403501        7.17942618990665
N            8.87074744038998        4.07613647226598        7.74128455400965
C            6.37623129905559        0.41192673999113        4.31189056052395
O            5.48959287081370        1.08828497566079        5.14530226096276
C            4.15559992113423        0.63930783704647        5.11291370702624
C            6.00688660558939       -0.63628111401421        3.47393400887517
C            7.39682443425281       -3.39398520390007        1.48676714273739
C            8.22050232211480       -3.90500402260883        2.49130384020325
C            9.08128521283450       -4.93660461225519        2.22899938555382
C            9.17475039271841       -5.49808415115158        0.95219575106743
C           10.10994059789069       -6.58977322867474        0.70371533887019
C           10.98313123785342       -6.67361694865666       -0.32983637238756
C           11.18535947790883       -5.64541142179598       -1.25307485690966
N           11.39570330746093       -4.78778888874495       -2.00884403819500
C           11.79978576152480       -7.79967263240629       -0.43598847518840
N           12.47793323272638       -8.74047467406428       -0.51589008249510
C            8.31265576989764       -5.01566949689647       -0.07272452964587
O            8.35186800952105       -5.65951000930113       -1.30649727247393
C            7.49336619965340       -5.14117935389687       -2.29518189164041
C            7.45396623338179       -3.96106249166531        0.22269575350859
C            4.47476888282390       -3.47124518139635        0.97666700020107
C            3.25535211720686       -3.45569913600889        0.35320251535857
C            2.69683635856047       -2.26849457297833       -0.13372039762076
C            1.46181773212831       -2.32657498771026       -0.91080242464895
C            1.28695253886134       -1.79905109180233       -2.14723819485660
C            2.31479544013402       -1.17934570421562       -2.86059606905950
N            3.16605248241187       -0.68236579763406       -3.47611357266067
C            0.05013588800789       -1.93370272710153       -2.77750988942180
N           -0.98523843303778       -2.04651654312214       -3.29342793968086
H            1.41655257239067        1.50622488695188        0.39064417329782
H            1.27250984306049       -0.15519706977597        1.02100421816054
H            0.89169080045271        0.19979311574496       -0.69426185597153
H            5.18047898196130       -0.18214586994863        0.85120599939984
H            8.91823183580457       -1.20843663917921        1.88346702500778
H            9.63526706099241        0.61282885571713        3.35934041076451
H            8.75817705629058        2.72544247070673        4.69598109158361
H            3.58012152032024        1.25392473745221        5.80766148941493
H            4.11019618704091       -0.40230777233142        5.43550751671130
H            3.75085556394873        0.76110794554466        4.10685893332073
H            5.00046037747633       -1.00717616438178        3.48672999813539
H            8.15798591453998       -3.48418609045027        3.47985764976840
H            9.71615205329376       -5.31869808242700        3.01063580748178
H           10.12791140108394       -7.39214259451281        1.42554129504824
H            7.64148709275321       -5.72584146280891       -3.20506299296594
H            7.74917178333014       -4.09896834342164       -2.49468582358807
H            6.45569935515154       -5.23969901962994       -1.97162876910824
H            6.81246059199325       -3.56000748301697       -0.53770314116078
H            4.88804788996077       -4.39497157498829        1.34277062773048
H            2.72233434552568       -4.37856231082141        0.19713664343191
H            0.63869879175190       -2.88524443267487       -0.49229165349658
