54
 energy: -11.908954536329 gnorm: 0.000713590816 xtb: 6.5.0 (97a52f5)
C            1.54552218402452       -0.59520944456841        0.20503815213918
O            2.89190371598972       -0.23237000342047        0.44291673568635
C            3.31279944066533        0.94652077255493       -0.20147241384418
C            4.51314774238502        0.89514536442614       -0.90391346841253
C            4.97311929230437        1.96146593173215       -1.65945781218029
N            6.20878817059324        1.86773450319074       -2.37357110945023
C            6.63445577012671        0.60018309163436       -2.89974894870017
C            7.95575530706091        0.18421621896209       -2.76364718607223
C            8.35988937787789       -1.03597295663026       -3.25477335959423
C            7.45406973490043       -1.86040621094892       -3.89162798334670
C            6.14087388122723       -1.45977117179237       -4.03680637317214
C            5.73301576721127       -0.24071104036861       -3.54579609443746
C            7.04857952298675        3.01621288659536       -2.52963157119814
C            7.78227247009741        3.20576887895863       -3.70213421347919
C            8.59572675903279        4.29723823612168       -3.84705098088053
C            8.73117485661226        5.24261010140114       -2.82629683505556
C            9.61393897369945        6.39036173368491       -3.00834526806160
C           10.55574966609795        6.81850749948252       -2.13197111329765
C           10.88888742309328        6.12929059215321       -0.96337521601848
N           11.21001762946631        5.55279596725379       -0.00650932810944
C           11.30639019819316        7.95170648859834       -2.44665927010001
N           11.93011339539506        8.89482488112604       -2.71712804288895
C            7.96111868684267        5.08484084644116       -1.63941359367744
O            8.03580441696937        6.09250886578212       -0.68051884744165
C            7.25190134261569        5.89367167578760        0.47279195565812
C            7.14925910196593        3.96089260868760       -1.51919759483140
C            4.19406712538266        3.11877611158621       -1.71954268927390
C            3.02632666092115        3.21332999664534       -1.00984982304351
C            2.57186008838244        2.16292371863401       -0.20497645590493
C            1.38741891633970        2.35795308417176        0.62566055017503
C            1.31521975437846        2.12741971419871        1.95996671424829
C            2.41541161751656        1.73622420851918        2.72599848426192
N            3.32476887616626        1.43692361841229        3.38518958293733
C            0.11051042236203        2.35753992148166        2.62470208760834
N           -0.89766646981009        2.54945975485157        3.17050955790034
H            1.46414960155555       -1.68045087508421        0.28433633112399
H            1.24742797308339       -0.28102908565123       -0.79702071484080
H            0.90165060500979       -0.13390105093851        0.95404792039363
H            5.08416401564029       -0.01300248242208       -0.86757689843623
H            8.65352217507344        0.82649341142219       -2.25515692345687
H            9.38460284261666       -1.34997040247733       -3.13907042214886
H            7.77168628639733       -2.81642194846620       -4.27494913569015
H            5.43424209795663       -2.10257668361443       -4.53631857900013
H            4.71315630987832        0.08187434129099       -3.66352665240028
H            7.68962106051509        2.48464716112464       -4.49531511069327
H            9.16020194897972        4.43038737896091       -4.75424374040621
H            9.52829088153178        6.93179695337713       -3.93808058431221
H            7.41246257097803        6.74263913453683        1.13964136380951
H            7.56538749313610        4.97947370788266        0.97949553431822
H            6.19630908674148        5.84893276504413        0.19954422262825
H            6.58278321850763        3.80114514540054       -0.62259077360879
H            4.52454397885037        3.93677223459032       -2.33528651790521
H            2.45359726203829        4.12462786891406       -1.04004440341504
H            0.51119877243669        2.76973598076696        0.14905685589635
