44
 energy: -9.541966372819 gnorm: 0.000262377151 xtb: 6.5.0 (97a52f5)
C            1.48788774006497       -0.46183342938118       -0.19401611723744
O            2.82320466972205       -0.25056244015615        0.22426102433750
C            3.34944741623766        1.01689881527857       -0.09376534166222
C            4.60915124767411        1.05274657096449       -0.68525229778718
C            5.18235454474331        2.23068054233330       -1.13802233258164
N            6.46888322964002        2.22333477349069       -1.76069041402757
C            6.90933769431487        1.07311355493158       -2.49940809959324
C            8.22691830053941        0.63334602398475       -2.40667055559908
C            8.65011579566745       -0.46875763918311       -3.11407453234684
C            7.76710772188035       -1.14985259041565       -3.92831394381905
C            6.45827477290110       -0.72306574082226       -4.03444125851916
C            6.03224160681346        0.37857408981810       -3.32814478159250
C            7.33457836441647        3.36399088685289       -1.65327115945892
C            8.08778685707916        3.78653230497810       -2.74517169436977
C            8.91946525293674        4.87833882781963       -2.64359428233086
C            9.01652578577104        5.56597501641541       -1.45019547168216
C            8.27895950948869        5.15654898788319       -0.35703231574836
C            7.44583919152835        4.06549731804040       -0.45582044544863
C            4.46249774415182        3.41774046392805       -0.98931864550798
C            3.23610276188453        3.42098276324971       -0.37901580282294
C            2.66087392415701        2.24575995528532        0.11706349906616
C            1.40201785805096        2.32325812899203        0.85284806928594
C            1.17495086637493        1.81762962399307        2.09076261630497
C            2.16784828530576        1.21051677336039        2.86326807283898
N            2.98189207687005        0.73122239266538        3.54066624904672
C           -0.08795966727760        1.96855153204143        2.66478455227046
N           -1.14309301257036        2.09487374972059        3.13616953424712
H            1.34205716870198       -1.52975751183748       -0.36204280025134
H            1.29805555204871        0.07836471917299       -1.12274180259034
H            0.79849436620102       -0.12857263466189        0.58112467850657
H            5.13663868141457        0.12668990854974       -0.81125121751493
H            8.90771670001946        1.16395463910970       -1.76446481288358
H            9.67175548061637       -0.80155463433631       -3.03114547454168
H            8.09932162576473       -2.01317040805520       -4.48116900987946
H            5.76963750299775       -1.25238380310073       -4.67242979625538
H            5.01704112682895        0.72362986312627       -3.41695626262019
H            8.00169317943046        3.25078541242523       -3.67415150969505
H            9.49467980549015        5.19778071842205       -3.49709847414814
H            9.66787828343276        6.42093923747235       -1.37189332618471
H            8.35721248437313        5.69098496946335        0.57550124254044
H            6.87879367422756        3.73362279176432        0.39616270041983
H            4.88602754854382        4.33303911257075       -1.36348567914809
H            2.70704816398543        4.34894467035657       -0.24536010647866
H            0.59740811755402        2.87663169348955        0.39412752546139
