55
 energy: -10.049610021518 gnorm: 0.000750416631 xtb: 6.5.0 (97a52f5)
C            1.18878240907613       -0.28504459560393        0.18348314458601
O            2.44185349985164        0.34582460492112        0.04364980030760
C            3.19116317823074        0.41969810606656        1.20278617186824
C            4.43921522560725        1.04581348042269        1.11957029734337
C            5.30153012568850        1.17401801726731        2.20427834993822
O            6.53198539681647        1.75271061945988        1.93104526922977
C            7.59639339259769        1.41604963393667        2.79913393302637
C            4.85991470071766        0.70087413015495        3.49529666471251
C            5.59661170612552        0.97016732722742        4.72413316520930
C            6.12696135339966       -0.07683377507101        5.54081577572696
C            6.16152809416913       -1.48336926610002        5.35315981612456
C            5.59718423492993       -2.25786509096729        4.22182500610107
C            6.83176917990526       -2.03076168684258        6.44229190462804
C            7.23841868605811       -0.99345501082782        7.29372182566116
C            8.00924010610329       -1.08874465815132        8.54778638638322
N            6.81432960130131        0.14558737324289        6.72215790800254
B            7.12221914800219        1.53106696687503        7.29761994583154
F            6.57550307580467        1.63300327494559        8.56948522859875
F            8.49768747261470        1.71914656816600        7.31795746057750
N            6.48746027359124        2.58497936258529        6.38522135760293
C            6.53036598627968        3.90241401006511        6.64673092557859
C            7.18936994700980        4.53696994695939        7.80309268038524
C            5.82079172468402        4.52763492145662        5.61269359560530
C            5.35179282378675        3.55552601914785        4.73506202200220
C            4.54950548507807        3.82254836057034        3.51753091202805
C            5.79460635769895        2.29752051607006        5.22101436607391
C            3.58062182286762        0.03307409263453        3.58222239401505
O            3.20236771063794       -0.41950902725416        4.82696617641383
C            1.91320397923575       -0.98814116778332        4.89952771653764
C            2.79228430505142       -0.09203346995936        2.44272598587135
H            0.68856365311623       -0.27778715838877       -0.78598545591220
H            0.57544598715832        0.26120915840575        0.90167376132512
H            1.32586397029529       -1.31954639679686        0.50181181126455
H            4.76035987793940        1.41738301516221        0.16579547393481
H            8.53608412633136        1.55126512068562        2.26206477250246
H            7.51407210287022        0.37438525173834        3.11107315852495
H            7.59300944729757        2.07448346270212        3.66701543577573
H            5.80757008579922       -1.77028231863471        3.26957429795612
H            4.51607687029982       -2.35287583744704        4.32413829288638
H            6.02138451368561       -3.26176289080809        4.18376579173712
H            7.02148538193638       -3.07878160428752        6.59901398693287
H            8.11344561055109       -2.12465064365161        8.87141428414815
H            7.51276537161053       -0.52930768088264        9.34124020714428
H            9.00605971211526       -0.66730709906159        8.41536287689626
H            7.66944753184820        3.78138913685269        8.42551389845304
H            6.46560236065693        5.07224113849377        8.41774591952892
H            7.95294225503627        5.24321458428515        7.47698461568286
H            5.65702196657652        5.58762083930370        5.52048836621171
H            4.14157769015475        4.83340595459723        3.53115680286619
H            3.71322387145566        3.12750060783801        3.44184253496524
H            5.16270442424125        3.72006027432576        2.62192556280506
H            1.72962413057826       -1.28956336311069        5.93170316856915
H            1.85403112649838       -1.87003822526623        4.25985260043067
H            1.16454343472390       -0.24941894011983        4.60876370794450
H            1.84365349430304       -0.58248596955187        2.51762794145673
