30
 energy: -6.025296402994 gnorm: 0.000959746357 xtb: 6.5.0 (97a52f5)
C            1.28629459744879        0.31816333848067        0.48412520598351
O            2.41042266256491       -0.24992078223415       -0.14680271778311
C            2.93312776254578        0.49934303570257       -1.20183208661834
C            4.03993504394997       -0.03737515186567       -1.86824615149266
C            4.66220443136842        0.59983340134929       -2.94277822930277
O            5.75808122359855        0.11382482892885       -3.64929695441940
C            6.23290564817702       -1.13761460914769       -3.21058651922605
C            4.11933461349001        1.83958064410682       -3.33408391607790
C            3.01548815603969        2.38743020593387       -2.67438778771370
C            2.41763859134967        1.73616534248448       -1.62187378937348
C            2.67708637051704        3.67612887595669       -3.31177499005251
O            1.77658430951738        4.42878282085891       -3.01028704062648
C            3.66471103067827        3.84880355847027       -4.39183920745408
C            3.83264545801592        4.87066820301040       -5.30789550413076
C            4.86101588693689        4.77530587206866       -6.22503083928590
C            5.71262921878371        3.67740933802370       -6.23122366204060
C            5.55177797386691        2.65467929793701       -5.32017868780389
C            4.52131821892043        2.74179788646030       -4.39572525163829
H            0.96751116780916       -0.35046224174436        1.28526323333860
H            0.47269544974412        0.42411939219542       -0.23518683783587
H            1.55124048896229        1.28571448567795        0.91386075084258
H            4.40781898877413       -0.98289561758586       -1.52093644174371
H            7.07538772649383       -1.42693101752252       -3.84063121137524
H            5.44506857405327       -1.88638710152373       -3.30604031692272
H            6.57165841221727       -1.06242190604481       -2.17616626684886
H            1.56762017642167        2.18215446777252       -1.14325972772948
H            3.16698766762501        5.71576706529616       -5.29269378472226
H            5.00398109939714        5.56296257688339       -6.94633926519845
H            6.50817079458415        3.62389899957205       -6.95609887435148
H            6.20067825614832        1.79671479049897       -5.30911312839681
