68
 energy: -13.305201686945 gnorm: 0.000542567574 xtb: 6.5.0 (97a52f5)
C            0.96668207625130       -0.18895131682808       -0.30958862349050
C            2.28237357628296       -0.24736307690920       -0.29644910728958
C            3.14300706958788        0.96278341335806       -0.32711501249789
O            4.52467758184998        0.66277495794403       -0.29331442632410
C            5.27678643657541        1.81741254608547       -0.34050409912093
O            4.76671829186191        2.93088015533983       -0.40531428455443
C            6.71852515508940        1.64002626506279       -0.30881430323120
C            7.20599521694749        0.34971969370113       -0.23778163498142
N            7.64838180369854       -0.72682320589361       -0.17969271390959
C            7.63699229132738        2.71511649433846       -0.34575577438403
C            7.24229842829937        4.05940376750713       -0.41423437467363
C            8.17041882948955        5.07089665323436       -0.44518572367529
C            7.73477498788416        6.44036506552379       -0.52149316821745
C            8.60851527466485        7.45780838736989       -0.58660946013521
C            8.27354312476763        8.86201047920069       -0.67030238122899
C            9.29490608754028        9.81190684494400       -0.78460809640176
C            9.01254043725973       11.15085234940959       -0.86980640665185
C            7.69208678772184       11.61510803904312       -0.84357176952392
N            7.40235840855006       12.98575778873482       -0.93513519564807
C            8.45213039290330       13.97701733995056       -1.17302050059951
C            6.03121922296342       13.48810615441088       -0.84326828849631
C            6.67096038698960       10.66454161206877       -0.72675703040587
C            6.95293314607130        9.32506957243311       -0.64328303448599
O            9.52147496914792        4.81495680246593       -0.40667902702034
C            9.93051368036493        3.49934953287681       -0.34166833032015
C           11.35534461188744        3.26515619926609       -0.30245261947100
C           11.95687329516891        2.06246168873984       -0.36537307674362
C           13.38529846954004        1.83871172985475       -0.31904776223940
C           13.89020318977963        0.54894733999571       -0.52148400826352
C           15.23801582965704        0.29998887834226       -0.48771271329032
C           16.15731276430217        1.32683224087849       -0.24289711500491
N           17.53807483046217        1.07320279993134       -0.20795700558743
C           18.09075719480275       -0.22475046022151       -0.59561078991016
C           18.49728000155925        2.09700002502726        0.20689561325657
C           15.65208555198274        2.61561266765817       -0.03425475126577
C           14.30422089302430        2.86581104585880       -0.07252440727356
C            9.02054132148286        2.46939100316299       -0.31185479364740
H            0.35958719808252       -1.07258942748489       -0.28742960261346
H            0.45737363808178        0.75325748592361       -0.34330479930608
H            2.78304969947023       -1.20064932445412       -0.26277970968009
H            2.92435727843941        1.61197621249712        0.52998365764247
H            2.95274276446977        1.54674060246720       -1.23635756449627
H            6.19793650786796        4.30180474808125       -0.44423828084482
H            6.67863889891424        6.63251330169682       -0.53293283960958
H            9.65434515406383        7.20527231518517       -0.58169919449897
H           10.31757390412486        9.47656443653397       -0.80700437668326
H            9.81804901598179       11.85817368367236       -0.95292441138904
H            9.12372271736636       14.02019480962658       -0.31788858161795
H            8.02909397969118       14.96741269728560       -1.32642757541219
H            9.02033480657240       13.71205665467722       -2.06247198995444
H            5.55445401989782       13.10997286598090        0.05870030148145
H            5.45932560409125       13.16891348751100       -1.71217180021359
H            6.01465056038144       14.57487914024247       -0.80016616560581
H            5.64687221483464       10.99177996973186       -0.71046715036722
H            6.14535866444874        8.62116329116917       -0.55337214298904
H           11.96050972492861        4.14940371015713       -0.23847272366937
H           11.34528431799656        1.18631964068865       -0.47667606344088
H           13.20072199411899       -0.25612901658292       -0.70947980810065
H           15.59670098927245       -0.70213704790332       -0.64026833527533
H           17.84745835000956       -0.97344565961955        0.15565541846196
H           19.17296359350025       -0.17355088725857       -0.69500751338908
H           17.68048061664703       -0.53302855693017       -1.55523205475270
H           18.17488107857358        2.55527670656774        1.13972820173207
H           18.57844887077882        2.86440279413839       -0.56032973992579
H           19.48215669637287        1.66454268016231        0.36971458512837
H           16.33633378511447        3.42474467391308        0.14854058789041
H           13.94996380928052        3.86618843083067        0.09862640744542
H            9.35820792885726        1.45338410763067       -0.24867053920673
