58
 energy: -11.566073246576 gnorm: 0.000814044552 xtb: 6.5.0 (97a52f5)
C            1.43403391627036       -0.48094145116814       -0.21240116183307
O            2.16479824966196        0.70155253660998        0.01096282191007
C            2.87723490239336        0.74000301708163        1.20782034724060
C            3.59725731366926        1.90857510267686        1.47987599066409
C            4.33465666882168        2.06749282698424        2.64102932399500
O            5.06582253939534        3.20330291288947        2.97125548190205
C            5.02278171097388        4.23909884107566        2.01794370788631
C            4.35211718843634        0.99593163969873        3.57950320589833
C            5.06617307882773        1.10045977681265        4.77965862558886
C            5.08936741145767        0.09334496233036        5.69675291092520
C            5.82369058894429        0.24768761482660        6.95860114284964
C            6.10648128974368        1.51112638158962        7.48567124661896
C            6.78834530526421        1.65652039965624        8.66790114649055
C            7.22847288151130        0.54712203759995        9.39563479250624
C            7.90928957092283        0.70043450131364       10.68699226961269
C            7.73458726488878        1.82742473915279       11.43212548054692
C            8.34788649531435        1.99611834994634       12.67955317095826
C            8.14488585311777        3.18250586423511       13.44122438704927
O            7.32457267141897        4.15589956010202       12.88120506201334
C            7.14535164156612        5.31087538340634       13.66738138436856
C            8.76934269740880        3.28473721560458       14.67274399582652
C            9.58249424875826        2.26662923836399       15.18309992830609
O           10.15228072255959        2.48389399096118       16.43571015839811
C           10.93961106371388        1.42501480899849       16.92674968736055
C            9.76802531168572        1.11674580501810       14.41821398151004
C            9.16559217972465        0.96393961361233       13.17733657480005
O            9.37762904241549       -0.19812264234375       12.45599681912630
C            8.77405759446378       -0.36069367004895       11.22365901622204
O            8.95265709536291       -1.37865953302926       10.57053218496053
C            6.95805955283702       -0.71235262534350        8.86009231303778
C            6.27168247504216       -0.85777288079547        7.68252047495754
C            4.35231346674804       -1.14210344437243        5.39191693280651
O            4.36570760280620       -2.06467068426268        6.19394226749542
O            3.64798654697620       -1.24791404809314        4.20816324216292
C            3.63986508405859       -0.18947250580878        3.31652320697953
C            2.91544124438957       -0.29689303432607        2.13775407644429
H            0.91380723303777       -0.38409214748303       -1.16675200175047
H            0.69842859432011       -0.61684288318593        0.58219246452771
H            2.11484854505583       -1.33214469169318       -0.26328147469694
H            3.55590377136176        2.69300653127140        0.75002528898847
H            5.43300329936768        3.88685062768574        1.07038111737270
H            5.63410364523708        5.06468549173359        2.38563365821012
H            3.99516717206806        4.58408746931607        1.89459247320653
H            5.61821935613318        2.00649811657513        4.94968483072354
H            5.75871402291052        2.38901039389428        6.97057660331926
H            7.00325413066745        2.64608366144203        9.03064107660766
H            7.08562130982595        2.61255772614828       11.09009999224885
H            8.10765598398858        5.79809646621006       13.83148385960301
H            6.67521843020724        5.04262354583942       14.61471963567004
H            6.48917672404150        5.99258439656396       13.12425249792342
H            8.64042647384585        4.16100388155436       15.27725977744294
H           11.31115783897679        1.70702791930690       17.91322957079940
H           11.78777552047166        1.25568582207053       16.26154935016719
H           10.33077425813231        0.52431637223725       17.01972596380089
H           10.38671357087473        0.31638774415584       14.77402627181570
H            7.29955714955466       -1.58277988088792        9.39226660218637
H            6.05726710699580       -1.84242620494934        7.30568685505451
H            2.38135339138245       -1.21014095875238        1.96235938920485
