27
 energy: -5.447730185273 gnorm: 0.000436440510 xtb: 6.5.0 (97a52f5)
C            1.02434269182089        0.33842831607396        0.11660249911793
O            2.21984851228932       -0.30587270739524       -0.25388342344327
C            2.93787274095506        0.30910097830512       -1.28015490509023
C            2.56186520183501        1.49718429677635       -1.91417971776678
C            3.32435289471849        2.05637985649739       -2.92997457497659
O            3.01275917697483        3.23562962097496       -3.60370743261420
C            1.82867006746235        3.87425324418923       -3.18840779426295
C            4.51592141105312        1.39396318834717       -3.32877616124774
C            5.32905134917148        1.91646013126234       -4.35450443592845
C            6.46567565324306        1.28734009937020       -4.73939642060440
C            7.25060536585594        1.82931732086340       -5.75663104277767
N            7.90919727362355        2.27622786116197       -6.60301061482711
C            6.85397745541431        0.05135750522014       -4.08428212549151
N            7.92828014989336       -0.55950970765370       -4.43972579302283
O            6.06207700510924       -0.47543860454463       -3.06826722013066
C            4.90765101640110        0.19476312761305       -2.70021328183800
C            4.11132404433075       -0.32094079614588       -1.68886399310352
H            0.56202766312827       -0.24561846758651        0.91454175526550
H            0.34628628343814        0.37593379889051       -0.73787338925219
H            1.24475461163885        1.34030719516760        0.48923667998651
H            1.66138569110379        1.98877952644371       -1.60636638240562
H            1.70419480662073        4.77576308261195       -3.79092965727873
H            1.91142498856710        4.15568820677252       -2.13718385026411
H            0.97607751485021        3.21327023398328       -3.35390850234275
H            5.03105967322898        2.83278680441984       -4.83366744025398
H            8.49872153491611       -0.20668686433325       -5.15232985848375
H            4.40679522235494       -1.23337724728654       -1.20634291696270
