25
 energy: -4.782629752460 gnorm: 0.000665571483 xtb: 6.5.0 (97a52f5)
C            1.47512773981342        0.19730232974900        0.05503094480944
O            2.67081469085585        0.85511034885710        0.40059970362735
C            3.24258211730379        0.45296327206969        1.60753014586050
C            4.45683680910304        1.04926152547596        1.96292505860534
C            5.12119852909581        0.72984343758847        3.13572211215354
O            6.32731012544172        1.29297976492226        3.54260243508842
C            6.86758422297947        2.25593045002609        2.66793434147479
C            4.53840077929005       -0.24096329723244        3.99573536597119
C            5.16217996273338       -0.61950105986107        5.20270093548368
C            4.59322719431452       -1.53602586198164        6.00111783607164
C            3.33588591040015       -2.15501288900184        5.65026048410977
O            2.85671990425958       -2.98398481884547        6.41297376142654
O            2.71589576189164       -1.79544317985767        4.47246139316608
C            3.31473465587668       -0.84846376849875        3.65513388146328
C            2.68848906153942       -0.48999901053074        2.46807585833566
H            1.14942683672925        0.57403977572813       -0.91601196893581
H            0.70728310765996        0.41472900280093        0.79913529836759
H            1.65327529280197       -0.87654646687398       -0.02171070891102
H            4.86477641657206        1.77470297837482        1.28670348389635
H            7.08103203822666        1.79677718922260        1.70131907336886
H            7.79861025750440        2.62305273363950        3.10356071997998
H            6.17103197518388        3.08943822282178        2.56223851507647
H            6.09921455676892       -0.15748243400595        5.46373743410945
H            5.05907216973764       -1.83341510657321        6.92342094471462
H            1.75520988391518       -0.96395313801295        2.23446295068695
