72
 energy: -14.298174791753 gnorm: 0.000435938051 xtb: 6.5.0 (97a52f5)
C            2.11214918956727       -3.21020996381731        1.51892162332058
C            2.36259668081153       -2.48463902713727        0.58214418513604
C            2.68167193450057       -1.63634944666813       -0.50358835317462
N            3.88408464060667       -2.05353324080539       -1.24161576546802
C            5.17267615166895       -1.80934449052364       -0.98040867458873
C            5.64261111007671       -1.13669571121864        0.20340669846332
C            5.00274541320462       -0.80290608368300        1.36932371416656
C            5.93601853581239       -0.14580029428372        2.22986278124136
C            5.63030628068506        0.33071791490708        3.52951969888721
C            4.40029194569256        0.11585458181652        4.20904848915483
C            4.48526384760284        0.72094155158654        5.44911790959111
N            5.76608800311894        1.31705853185500        5.50139327965480
C            6.46389544306554        1.10064639716009        4.40413718606096
B            6.25286280065723        2.14053022202394        6.70320153765530
F            6.49067501272129        3.44385438615041        6.29176061695759
F            7.39520693545100        1.54987122178048        7.22337476996975
N            5.15511698615168        2.14586802439279        7.77941352080463
C            5.25728851569176        2.74815431547475        8.95869588246435
C            4.05701487743824        2.48742456361627        9.65763288186609
C            3.24371010887875        1.71555325657686        8.86372155979205
C            3.92798599187501        1.48425546789614        7.63911351755566
C            3.54761023017300        0.76126394785325        6.51055913074221
C            2.26143448791946        0.02523646727644        6.43880786777704
C            1.05511769453494        0.71004257951993        6.20000029121194
C            1.03861549649475        2.18866446953482        6.02324246026930
C           -0.12927642009664       -0.00112959995359        6.15150383456161
C           -0.16000699667070       -1.37721766178077        6.31445240278046
C           -1.44069806400693       -2.13387492993131        6.24114140048317
C            1.03397127649632       -2.04500362173283        6.53035163465360
C            2.23875411959388       -1.37252917611056        6.60650557924211
C            3.49763260113663       -2.13397992207754        6.83995653372178
C            7.19057884909869       -0.11185062493846        1.53805418994200
C            8.48814891215132        0.41721671925943        1.99310899815690
N            6.98063502578071       -0.71383476853454        0.37154723904543
B            8.09847550386277       -1.00491669981410       -0.63894958516946
F            8.58410195121668        0.19429565522293       -1.14088431132200
F            9.09995600647051       -1.73274096844124       -0.01002335217071
N            7.52342561607602       -1.83986286139145       -1.79119649010896
C            8.26218620084273       -2.30038383379609       -2.82236015556389
C            9.71457918487836       -2.11669481941451       -2.99807894398884
C            7.37053171060999       -2.96360567321613       -3.67339341707811
C            6.09436161619676       -2.88555274572763       -3.12565799948984
C            6.18562274082676       -2.17458770441312       -1.92102058846766
H            1.89397526304109       -3.84991892929890        2.34331805151022
H            2.83329717192306       -0.60678515503118       -0.16072863898108
H            1.82788475922695       -1.58459528454739       -1.19140222698360
H            3.63464839112212       -2.57458212951656       -2.07957604875348
H            3.98530439390942       -1.02856512208217        1.62432798730923
H            3.55667358693581       -0.43969774664765        3.84122304889041
H            7.45490267141773        1.47714525897474        4.22612364024133
H            6.11192955250551        3.31309157271396        9.29299532310841
H            3.82212560689937        2.83412022344702       10.65126732397230
H            2.26477015041015        1.34409120392884        9.11489572244163
H            1.97612488631568        2.54521572895948        5.59596953408470
H            0.89126689981059        2.69109740830096        6.97947476978119
H            0.23469715620637        2.49519673112654        5.35345761840387
H           -1.05002630174731        0.52692257589799        5.97907158243313
H           -2.29982762003194       -1.46265532363183        6.24064483999484
H           -1.54442772732292       -2.80480065410166        7.09449981462059
H           -1.48352312797553       -2.73443023240833        5.33207318367518
H            1.02083392059767       -3.11416831532241        6.64604614549360
H            3.31232837208943       -3.02739605808264        7.43680109964198
H            4.23110421742395       -1.52909162884804        7.37361934106972
H            3.94210413504374       -2.44584480581768        5.89457679636739
H            8.79011761278374       -0.04284750913950        2.93400360619298
H            9.26054091551966        0.20367972771237        1.25373663260477
H            8.44475117977731        1.49802412833778        2.12664936750133
H           10.13306586766942       -1.57945973456431       -2.14658208658044
H            9.92797108267418       -1.54223488091051       -3.89946982460292
H           10.22200962379153       -3.07840568819514       -3.07469454087996
H            7.63615035129101       -3.44882126241647       -4.59806483525337
H            5.19716885986748       -3.30312050313449       -3.54971100614384
