47
 energy: -8.883614160831 gnorm: 0.000795627869 xtb: 6.5.0 (97a52f5)
C            2.10185132386576        0.02063244909477        1.15365253053180
O            3.22577889168608       -0.20912238543268        0.33790521996600
C            3.54134917861357        0.83158658838139       -0.54201938553642
C            4.62891532020210        0.64783589264014       -1.39013963538168
C            5.03051341039031        1.61772888276781       -2.30372287502262
O            6.13991522181123        1.32773872819159       -3.10482800657192
C            6.52667947360016        2.35753385235403       -3.98311612203584
C            4.30261040748458        2.80635757650230       -2.35804817064771
C            3.21736542582697        3.01447439803845       -1.52768991148314
C            2.45756309049500        4.28712272974186       -1.60289660748161
O            2.78269694428493        5.14393067747792       -2.40131121171648
O            1.41038665338009        4.40794739547145       -0.73188149829561
C            0.77979998761805        5.65905821389308       -0.89274309267877
C           -0.07926232066799        6.01836451087181        0.26844130442466
C           -0.06263309319575        7.18213512956822        0.98471161609575
C            0.81101930709326        8.35076641302301        0.75406200730616
C           -1.04410086044004        7.11332394135615        2.05406083947735
O           -1.28711696251507        7.97951246029420        2.88139886757608
N           -1.64140100264058        5.85374656428658        1.93367297269961
C           -2.60004362290025        5.00599622141451        2.49881481015501
O           -3.31356798862219        5.22548777449935        3.46653948843810
C           -2.57531283568445        3.79760457425389        1.69122862648793
C           -3.43896251301566        2.62727211112295        1.95082924548758
C           -1.63929857577375        3.91721732373578        0.70229280144554
C           -1.32170601007104        2.92857493135043       -0.34399067787580
N           -1.04338372303564        5.17544837249899        0.81847922551312
C            2.84292897098098        2.03586895386761       -0.62583203619183
H            1.95340413431014       -0.85803069914921        1.78354117854038
H            1.21811692596659        0.16631437318780        0.53063221662685
H            2.27804966864882        0.88978364218255        1.78948496223057
H            5.17719733465783       -0.27352420287831       -1.33781205168351
H            7.40954601098855        2.02368501523177       -4.53064001625496
H            6.77824095839655        3.25363482829481       -3.41340126319949
H            5.72205039032293        2.55921326042372       -4.69196485371419
H            4.57047779499183        3.58399238680382       -3.04824368551110
H            0.18843039588471        5.61869984189682       -1.81499786822224
H            1.56726673653259        6.40763455853060       -1.03639460818867
H            0.66157840359758        8.75874076095226       -0.24595372651198
H            1.86130938616653        8.07953952038022        0.86357211859192
H            0.58995064829580        9.13808745413422        1.47563187882239
H           -4.15456108601658        2.85142161327956        2.74287847781199
H           -2.84573036051739        1.76864363003058        2.26642305168193
H           -3.99946969202069        2.34943750982217        1.05796578706586
H           -2.10478416095067        2.90127377186354       -1.10229198729171
H           -1.22049802029269        1.92956867275410        0.08012472414987
H           -0.38293124197956        3.18051997782778       -0.83650845811022
H            2.00222167259363        2.22697980442694        0.01365379782283
