81
 energy: -16.387277572638 gnorm: 0.000703997246 xtb: 6.5.0 (97a52f5)
C            0.48880137020311        1.75732488570128       -1.01521953224771
O            1.78265271816222        2.06696910356254       -1.47990327941709
C            2.73805003253304        2.24801203671281       -0.47555511127432
C            4.03608573885763        2.56265115662601       -0.87167256268038
C            5.06718546873421        2.76439455321317        0.04302146677440
O            6.33143742186004        3.07556177285796       -0.46624178025147
C            7.33160859682328        3.25990533475612        0.50904552381448
C            4.77042937725827        2.64228374661521        1.40116635245073
C            3.48485978846697        2.32868759822345        1.83612264445967
C            3.19201962781656        2.20276299938120        3.28389182958351
C            3.10819381832084        0.94678273539808        3.91859093311251
C            3.26541818403118       -0.39232309038839        3.40300144312080
C            3.55435012338533       -0.76892008489516        1.99726047992693
C            3.06484537356004       -1.26906416970891        4.44192075867502
I            3.12062375002255       -3.34858386148679        4.31052426852365
C            2.80432738515877       -0.51351852805945        5.62714794462312
C            2.56186534812481       -0.97462606877605        6.94634943908310
C            2.51110238212667       -2.28076746643881        7.29499387593956
C            2.27570781314915       -2.75605782580329        8.61604698428318
C            2.08788000609513       -2.00318343776265        9.77694714403490
N            1.90294568880098       -2.83092171646964       10.83480839260561
C            1.96434980450510       -4.15711474680385       10.39710988186581
C            1.83636872266575       -5.36878814826684       11.07587625666690
C            1.94241127385049       -6.53716376312675       10.36049890009855
C            2.17420189026297       -6.52185879973459        8.98152078966808
C            2.30279481299629       -5.33762515985770        8.29797285559957
C            2.19704217501306       -4.13891390191747        9.01005439471215
N            2.84160491383186        0.79059884249948        5.25547350141552
B            2.62157117380451        1.94870993678270        6.23420430762729
F            1.35789204225838        1.84237222753935        6.79855245427797
F            3.60859263462175        1.92293573775494        7.20914667031862
N            2.71894662203618        3.25800922049923        5.44460405074684
C            2.54136269178264        4.48011624047152        6.00624683632677
C            2.25257463179670        4.70963105577340        7.37578439364028
C            2.05805039446467        5.93626458437082        7.91230112986263
C            1.75987933035842        6.18106742696631        9.28254996721383
C            1.63256183211225        5.24644323044530       10.31203551805214
N            1.33746663694912        5.88117467214672       11.47321542921501
C            1.25905424117065        7.25705751560436       11.23847537602373
C            0.98070669175473        8.33226704584308       12.08211476863058
C            0.96884128634227        9.59907349483561       11.55003674290758
C            1.22872993098695        9.81580626651381       10.19328195738789
C            1.50433950414485        8.76840718660082        9.34882383776145
C            1.52073034720033        7.47238137276100        9.87327045187609
C            2.69667148222713        5.42731266932594        4.94693542549892
I            2.55349626558436        7.49832305597301        5.13304125851272
C            2.95604725367985        4.74121024882551        3.78496698802315
C            3.18684530729272        5.35103838790709        2.45203992006298
C            2.98038698773955        3.33274870669934        4.09967242093077
C            2.47991754493585        2.13475213638202        0.89126695871308
H           -0.17093331286241        1.64185787500958       -1.87623252851375
H            0.11413050669146        2.56858650177911       -0.38947455030984
H            0.50807100052396        0.82042462549503       -0.45679133059509
H            4.24934244315004        2.65263000410016       -1.91944623583228
H            8.26976533098975        3.49471762434059        0.00441647127796
H            7.46089625390595        2.34355124966812        1.08674402166446
H            7.06498840817402        4.09093458357274        1.16351372482636
H            5.53631644308357        2.78638869003589        2.13871005382251
H            4.35322421037868       -0.15267587351570        1.58484467298428
H            2.66980612629056       -0.64442742476511        1.37248793737150
H            3.87110358326199       -1.80946002196913        1.92667691490906
H            2.41068142078107       -0.22212820170487        7.69810408511858
H            2.66163624675914       -3.02592648321355        6.51308625879124
H            2.09486551971419       -0.92770759700835        9.83764488571422
H            1.75329810507177       -2.56668390374322       11.80785760155751
H            1.65865176262104       -5.37247141999330       12.13630940057212
H            1.84539247591584       -7.48220895050962       10.86900766933206
H            2.25232635481591       -7.45443227537950        8.44748789270058
H            2.47890541054961       -5.31790287327710        7.23730722446886
H            2.18090645604964        3.84197057725739        8.00525083627400
H            2.12917272426485        6.80147254774620        7.25197940016831
H            1.74903908558217        4.18031717299790       10.21150122718146
H            1.18444524499792        5.45715402692812       12.38743323260902
H            0.78134647874055        8.15762629777798       13.12420328230808
H            0.75527711824940       10.44069233154610       12.18811466088328
H            1.21133745392557       10.82078713629015        9.80508482897716
H            1.70350552909048        8.92719568788186        8.30402540595807
H            2.90475992735742        6.40390539597618        2.44751438550084
H            2.59747564286130        4.84754150019195        1.68565326075080
H            4.23829843611008        5.28525949903143        2.17214607000086
H            1.49326917286805        1.89604528143375        1.23886858073669
