67
 energy: -12.887836907144 gnorm: 0.000438310809 xtb: 6.5.0 (97a52f5)
C            0.99182358218268        0.62237522007751        1.72597760360409
O            2.26857759603451        0.88130526042442        2.26306057633688
C            3.15217674031539       -0.19596966597136        2.21707383189217
C            4.43548048437561        0.00073168629733        2.72419080185270
C            5.40043931028588       -1.00497011406640        2.72437361780474
O            6.65240610977741       -0.69807580917281        3.25501935508398
C            7.58474684824445       -1.75404641080232        3.21906754099384
C            5.04924483196351       -2.24974539849872        2.19324632438734
C            3.77698061260747       -2.48423171935409        1.67953665393331
C            3.42848718726610       -3.81055253085372        1.11734575931901
C            3.43456140314877       -4.05080923920256       -0.26961350936012
C            3.75586942601121       -3.18778926090341       -1.38181749488865
C            4.16285269050603       -1.76281830995817       -1.30586084518876
C            3.59986904746858       -3.91625396234453       -2.53646711891898
I            3.90091366123378       -3.20884682687410       -4.47144551492875
C            3.19771321402976       -5.24174074020299       -2.18696397934066
C            2.92995433905993       -6.34657450380477       -3.03900855301564
C            3.01859861096547       -6.29928852136358       -4.38432000458249
C            2.75039640354149       -7.40658170957085       -5.26826519479403
C            2.86232363141328       -7.30210964920938       -6.70144695828944
C            2.56902541411428       -8.44534677574405       -7.34899409431874
S            2.14409241706360       -9.69540414225494       -6.22711146116815
C            2.36551917095541       -8.66006821095938       -4.87277058817156
N            3.11916049756066       -5.26460104937715       -0.83202854912883
B            2.73566343573307       -6.51133454517097       -0.02826060694008
F            1.44629709740303       -6.89749804372727       -0.36464846580846
F            3.64476757078669       -7.52638245947188       -0.28871656572349
N            2.78631747186415       -6.15114162537255        1.46010444460529
C            2.51599009746844       -7.03547375493177        2.45370456919571
C            2.18763252626469       -8.40406843144593        2.26002653653805
C            1.93025932457069       -9.26746927937943        3.26410058958148
C            1.60590871541605      -10.66160205468567        3.08896691793960
C            1.51566465162041      -11.33370191891141        1.81618959577505
C            1.20141309362289      -12.63883886155487        1.91947641187069
S            1.00335781370341      -13.09578205163459        3.57870523392751
C            1.35016028205240      -11.50718582828045        4.13526430449249
C            2.64630523922781       -6.30749842377666        3.67587771342795
I            2.37308990871651       -7.08724612307653        5.58696196999583
C            2.98436478036594       -5.00933553241135        3.37774752567103
C            3.22405854168740       -3.92892226349656        4.36611360217513
C            3.09140507060476       -4.90055991240819        1.94180855734604
C            2.83939961088583       -1.45547098631550        1.69646491611999
H            0.39159321008646        1.52956361083134        1.80772847149152
H            0.50594835732105       -0.17513669490262        2.28995072455528
H            1.07920399786243        0.34998387425393        0.67322886377197
H            4.69052979295545        0.96204098807374        3.12688476036841
H            8.52141038825236       -1.40363244170011        3.65472642966318
H            7.76588320450337       -2.05483842871623        2.18615847032388
H            7.21556000211050       -2.59677378560436        3.80522964569434
H            5.76297542765383       -3.05052960170538        2.17022086848533
H            4.93834996835631       -1.61838092341815       -0.55367982614871
H            3.31389748556228       -1.13017867180789       -1.04682638418202
H            4.55960350291395       -1.41625979821952       -2.26010418270410
H            2.64242722108495       -7.26327890247430       -2.55859220380676
H            3.31377073228530       -5.35412476114615       -4.84633983205765
H            3.15515840032868       -6.38897526127147       -7.19661169483479
H            2.59040342786190       -8.58248177626418       -8.41366222810393
H            2.21661490591785       -8.97356872184935       -3.85879732216746
H            2.15497248252745       -8.74846236455581        1.24319630564347
H            1.97320072933689       -8.89059163525972        4.28840919272814
H            1.68545678228811      -10.83753147576036        0.87353146923130
H            1.08561499435812      -13.31924506889432        1.09708845603907
H            1.36310526849854      -11.22417463673099        5.16950980116718
H            2.82981579089252       -4.19886896967994        5.34578426546148
H            2.73749278585806       -3.00346776007112        4.05815597438024
H            4.29075283461439       -3.73362511951991        4.47632955200876
H            1.86210984443169       -1.65035719388895        1.29893497367564
