68
 energy: -13.333240458980 gnorm: 0.000579913490 xtb: 6.5.0 (97a52f5)
C            0.71728462743308       -0.63145331464709       -0.27103321705185
O            1.92085016143410       -1.15164343209860        0.24246322726740
C            2.79474444862399       -1.66885977095786       -0.71517701225944
C            4.00705904696482       -2.18543366351488       -0.26348186544002
C            4.95697256895123       -2.72370450890846       -1.12829818455765
O            6.13649963609434       -3.21332296564727       -0.56516480617509
C            7.06552894783227       -3.73011462961137       -1.48905117276640
C            4.66580368585991       -2.73760712393385       -2.49339689089352
C            3.46397752644435       -2.23205980052515       -2.98240172751470
C            3.17626559939202       -2.26783940992816       -4.43563872713520
C            3.31663539834878       -1.12725152760421       -5.25118486706863
C            3.71466543131922        0.21373121750482       -4.94651699284087
C            4.08525260312669        0.74882862903195       -3.61276414124063
C            3.67675589486793        0.93637606175171       -6.12529087149564
I            4.13610092288898        2.95496619777331       -6.32668741724127
C            3.27289846332400        0.07346763528491       -7.17142413911254
C            3.11252951175690        0.37995424906670       -8.60627994642381
N            3.07888041561365       -1.12761764846252       -6.61570710866351
B            2.66595160369690       -2.36967316775037       -7.40874149787776
F            1.43405976040271       -2.14573704998645       -8.00375150774938
F            3.63654557159845       -2.65487500446571       -8.35661102546116
N            2.55129217014124       -3.54113752255836       -6.43081523471173
C            2.18563270200316       -4.79177060576693       -6.81570546005574
C            1.91449143094151       -5.18963735827927       -8.14532073676538
C            1.54584747127899       -6.44802087900460       -8.49175093036639
C            1.29511985120871       -6.87765925716021       -9.82111186535368
C            1.40841281583628       -6.13763606022028      -11.00166677313777
N            1.09468749051660       -6.91885306659900      -12.06168288511268
C            0.76329733391356       -8.19987465940011      -11.61239270170761
C            0.37680173147011       -9.35684384892951      -12.28862417799681
C            0.11253005659319      -10.48677802393930      -11.55493751939930
C            0.22550674807286      -10.49329242078029      -10.16047755250875
N           -0.06831037165034      -11.71581227841251       -9.40992406688680
O           -0.40058147778270      -12.73307581927804      -10.03580967134702
O            0.02536073368591      -11.68944509411304       -8.17371655532356
C            0.60872204875884       -9.35880037254203       -9.48334887158728
C            0.88050264305095       -8.20104073286399      -10.21054334746299
C            2.15607475968117       -5.57655515232979       -5.62241573218839
I            1.66288245456356       -7.59390481225989       -5.54452976736467
C            2.50193465958674       -4.77630549199099       -4.56302370599494
C            2.59276503101423       -5.20964320074986       -3.14659356308941
C            2.77428483501753       -3.45405566003513       -5.08045893152100
C            2.53807146955298       -1.70249122329697       -2.08721738128994
H            0.12526056751378       -0.25038447098184        0.56236916670795
H            0.15705183898291       -1.42155072865109       -0.77320534200817
H            0.93080218019060        0.18798152154246       -0.95884173684232
H            4.21708304842309       -2.16753759533588        0.78879075160778
H            7.94380696856491       -4.07026944805657       -0.93850016251190
H            7.36563728740945       -2.94882375627456       -2.18894244427695
H            6.62887680593464       -4.57739041007396       -2.01976471447595
H            5.37026285014349       -3.14192473577303       -3.19449449659688
H            4.80821419513122        0.09909427711895       -3.11947429658847
H            3.20795210680239        0.83370146517820       -2.97169328717463
H            4.53333577011209        1.73867807347535       -3.69846612150137
H            3.18248806340340        1.45125146636835       -8.79379505208986
H            3.88264483221671       -0.12360307347912       -9.19094028859169
H            2.14203952694324        0.03150888353768       -8.96073847131954
H            2.02016677194153       -4.43946916849763       -8.90719834397328
H            1.43980858830235       -7.19301462019508       -7.69298429981989
H            1.70787161884125       -5.10508202471828      -11.07249353591645
H            1.09294691924042       -6.65147458468592      -13.04515795192452
H            0.29129162683198       -9.34875630795490      -13.36040989806133
H           -0.18908605243872      -11.39596421202461      -12.04623524948710
H            0.69367412627298       -9.37111726087840       -8.41263205089475
H            2.06322977047237       -6.14935905087741       -2.98994975280966
H            2.15059698358207       -4.46751492221187       -2.48206428161382
H            3.63168705922529       -5.35676371299361       -2.85164290278157
H            1.61302813252461       -1.32246303545148       -2.47590791416962
