59
 energy: -11.096119548987 gnorm: 0.000434867727 xtb: 6.5.0 (97a52f5)
C            0.71882639802977        0.58538927260578        0.78631453644843
O            1.98456745674090        1.20458154637838        0.80023465933971
C            2.94265486959874        0.55823341872337        1.57528939537944
C            4.21916610320218        1.11737995208466        1.62159764756043
C            5.25496754120236        0.55410678805650        2.36587101670451
O            6.48902261472902        1.19673337925689        2.34119551163633
C            7.49294083811293        0.58001590360439        3.11409679294061
C            4.98369559950337       -0.61563907083144        3.08554974362453
C            3.72176519930841       -1.20221322374493        3.06384860410078
C            3.45647685004330       -2.43839546296175        3.83733486671048
C            3.46013068382875       -3.70739518632689        3.23036911400337
C            3.70171730628133       -4.10835657057281        1.87814804604883
C            4.00298385051549       -3.21974791718028        0.72876346886647
C            3.58303815425808       -5.48719102631923        1.82528613293652
I            3.81950249771954       -6.67093759430566        0.12736129979751
C            3.27522951054405       -5.96475706091609        3.12091261683691
C            3.09377796223117       -7.36417067432349        3.55072018990287
N            3.22038718824427       -4.89029215329843        3.91861659970936
B            2.94522142463302       -4.95585001961995        5.42446712706245
F            1.69220853303056       -5.51199715957422        5.63879479323818
F            3.93879860605857       -5.70313737921015        6.04073285812411
N            2.96827751264590       -3.52730110283691        5.97692741193312
C            2.75643785583926       -3.23311608736693        7.28908087177489
C            2.50266488335861       -4.18727397692913        8.30411375950641
C            2.28787015966695       -3.87356570982137        9.60203022906995
C            2.02690208247095       -4.82868414280382       10.64491438932332
C            1.96246081924349       -6.25786747200380       10.45795890198710
C            1.70321075718707       -6.93597398332037       11.59151051005954
S            1.52812182719159       -5.85119297263318       12.93216676626752
C            1.80777059540952       -4.47110479942901       11.95100878583206
C            2.84747545874974       -1.81084343967028        7.39266700418307
I            2.62573788855255       -0.71284985076467        9.14690129873848
C            3.10556678954786       -1.29687578487126        6.14496818523009
C            3.28003579223849        0.14042921208256        5.82005737612398
C            3.19798767824448       -2.40452745952009        5.22092095261003
C            2.71247282457010       -0.61151697374519        2.30930713399007
H            0.05436614299731        1.17150644807825        0.14993358198058
H            0.30748784487561        0.55753793523355        1.79639302765994
H            0.80238552804248       -0.42246454798474        0.37715606825504
H            4.41151506202227        2.01360785728974        1.06383299382327
H            8.40866114113287        1.16573849140272        3.02230486555851
H            7.67982679530749       -0.42900249217986        2.74371660586379
H            7.19264245139753        0.55529417283327        4.16260921645934
H            5.75250342069437       -1.08289782649332        3.67013790019315
H            4.78811136763814       -2.50734660584330        0.98201622124844
H            3.11726295718176       -2.65969752531298        0.42879143358662
H            4.34284089826294       -3.79469561062169       -0.13261638708299
H            2.50853692175389       -7.92473469303455        2.82182343723020
H            4.05752229207225       -7.85843717721321        3.67250523976558
H            2.57250030303325       -7.40064083157800        4.50771016475757
H            2.48281304653813       -5.21675950398125        7.99849434809883
H            2.31289133588860       -2.81836959825297        9.88507556478296
H            2.10835853527122       -6.73539211806512        9.50176947878803
H            1.61401991037616       -8.00279604648226       11.67312011553822
H            1.80912093544712       -3.46398844099686       12.31908471150154
H            2.92772597375383        0.77261546858425        6.63504519625536
H            2.71691923851993        0.40937498994437        4.92643872724567
H            4.33019411601295        0.37397006145715        5.64466885544305
H            1.74411166905359       -1.07338762466216        2.30365003544961
