51
 energy: -9.298824204041 gnorm: 0.000476739606 xtb: 6.5.0 (97a52f5)
C            1.04339248029184       -0.64519409197472        0.17873624196639
O            2.28114275800846       -1.31216011226812        0.27601489964263
C            3.06254221028219       -1.26085021308252       -0.86899037963612
C            4.30433482557975       -1.89641709265278       -0.83245465886861
C            5.17170854515299       -1.90761601594171       -1.92555663713963
O            6.38075180124601       -2.57177563238155       -1.77891482643030
C            7.21564004849152       -2.54064854242978       -2.91390976613993
C            4.76203473727105       -1.24798970183044       -3.09440095474211
C            3.53144710891696       -0.60270119022248       -3.16730510273565
C            3.12238144843443        0.09434237310626       -4.40964075604225
C            3.24229848717698        1.48916371282796       -4.54779046256270
C            3.74078385387915        2.48861047392731       -3.65594021163835
C            4.26716264851860        2.27527198948575       -2.28524064108173
C            3.61912013264321        3.71562392085128       -4.29305299062454
I            4.15956690773512        5.55956861195543       -3.48850307162684
C            3.06576034028617        3.50592045917970       -5.57626578852820
C            2.76785137666609        4.50551550266924       -6.62024125904915
N            2.86167468797851        2.18526904351856       -5.69107176009119
B            2.28767935604170        1.52033313565039       -6.94628368722935
F            1.01304941903622        2.01496295578651       -7.18329280696080
F            3.13387234077914        1.76173142437078       -8.01910226518691
N            2.20480964015114        0.01051959272237       -6.69826217396969
C            1.73585319199539       -0.86912475236634       -7.59684549951642
C            1.24614526380035       -0.54224831743840       -8.94932027525321
C            1.80439113404468       -2.14056642136206       -6.98640302462421
I            1.23071306970793       -3.93572051109495       -7.87317663599523
C            2.31728755552704       -1.99176671389012       -5.70543761317090
C            2.55120769861610       -3.08874511632092       -4.73426059559933
C            2.59231936158132       -0.60293286454817       -5.51043197674964
C            2.69156831215468       -0.61457883510670       -2.05801603380480
H            0.52365466187584       -0.74176136521116        1.13296553490991
H            0.43583450476959       -1.10253053063273       -0.60353377435175
H            1.20598230353885        0.41323022680451       -0.02972495174309
H            4.60325421613855       -2.39485605160392        0.06947734637932
H            8.13430757460135       -3.08093066929270       -2.68111948090882
H            7.46600570884529       -1.50854401326767       -3.16338422293198
H            6.71993809243095       -3.02996598827381       -3.75353272820764
H            5.39931941294025       -1.22925798035906       -3.95726539376514
H            4.95027723785579        1.42664283097019       -2.25649076847185
H            3.45565641787154        2.08411809081584       -1.58328849283934
H            4.81345649562035        3.15089235430168       -1.93541277363472
H            2.95200045295523        5.51896106903499       -6.26388049733960
H            3.38788423944164        4.33232027088648       -7.50012432721548
H            1.72405686474411        4.43363373457744       -6.92700456790712
H            1.33435884110669        0.52877012367208       -9.13429602421922
H            0.19839303059977       -0.82095443821169       -9.06084491133177
H            1.82455378723119       -1.06722922038416       -9.70945251344818
H            2.04943702001668       -4.00374421979422       -5.04893501160634
H            2.16936913566337       -2.82467425628325       -3.74810441500634
H            3.61549271074625       -3.30508153592150       -4.64188178399901
H            1.74446654901340       -0.11577550296763       -2.13047552897332
