47
 energy: -7.376620408224 gnorm: 0.000829416769 xtb: 6.5.0 (97a52f5)
C            1.11101756182317        0.94997112077448       -0.16926268881564
C            2.32815295815032        0.49470942656775       -0.38928906153180
C            3.36710741990902        1.24688188270147       -1.14520558015403
O            4.57568434597977        0.50901473830503       -1.22650339710491
C            5.58661509288865        1.16623431314453       -1.91309711954065
N            5.34707709536637        2.36632064453155       -2.41430127392921
N            6.29218071419011        2.95469106416436       -3.03482991815800
C            7.44992285997794        2.32563901839750       -3.13907105399614
O            8.49003058152995        2.94591049290277       -3.81429306747211
C            8.15181012449812        4.22254281657422       -4.32258664387766
C            9.32303552278382        4.82505510792709       -5.07646841794009
C            8.96324389817337        6.20928363263126       -5.62389219920815
F            7.92106175392474        6.09285719158878       -6.45707075613494
F            8.66130670828685        7.02163308130304       -4.60280488834147
C           10.17453408402980        6.79123788984825       -6.39849988717622
F           11.21229770444532        6.84557167454199       -5.56069188520467
F           10.43697333059418        5.98195693406614       -7.42682849052270
C            9.86675190545429        8.21553016856928       -6.92657374053084
F            8.77532168945700        8.16916435114281       -7.69326946770592
F            9.68072235231407        9.03087880698056       -5.88662618956912
C           11.05361420768028        8.74062776124220       -7.77625124994293
F           12.16735615441687        8.69324151747427       -7.04292509048600
F           11.17180411476665        7.97961452496542       -8.86590054352805
C           10.80078764785390       10.20765896702435       -8.21095151950713
F            9.64705814409522       10.26982419330177       -8.87784752513239
F           10.76072443172391       10.97920522875118       -7.12329871391248
C           11.94338562728063       10.70072270582896       -9.13670046142145
F           13.10568136926154       10.57461596119650       -8.49346677493311
F           11.93831638111707        9.96993879745402      -10.25318879554272
C           11.73089245856356       12.19045843020378       -9.50751872819021
F           10.55192397731146       12.32968788398283      -10.11552543904662
F           11.78232049955836       12.93165486217170       -8.39974505575736
C           12.83762990539679       12.69095745439673      -10.47462152455446
F           14.03004682522814       12.53710164171085       -9.89245352996347
F           12.78053053173710       11.98618126398939      -11.60801423571744
F           12.61446564564931       13.98385927484393      -10.72767117834991
N            7.69080747424089        1.12355848685910       -2.63814579268517
N            6.74607073397971        0.53467162538363       -2.02106459306492
H            0.38708520293448        0.37772895665499        0.38350209738937
H            0.79990614578686        1.91063646506798       -0.53492111952753
H            2.62524002338859       -0.47714989851720       -0.01221191719091
H            3.60026315122482        2.19925089479230       -0.64461274955814
H            3.03558639809162        1.44286343125788       -2.17651261687803
H            7.86172471920086        4.86153263716728       -3.47304350629436
H            7.27826356029923        4.10744946540835       -4.98431367150712
H            9.61220479445140        4.16611994281107       -5.90555974063568
H           10.19261217097169        4.90797316791944       -4.41164029713711
