39
 energy: -7.280324212745 gnorm: 0.000424671191 xtb: 6.5.0 (97a52f5)
C            1.99547492771498       -0.75299059527437        0.63768257176633
O            2.87635677224055        0.01662626748799       -0.14530992624542
C            3.47380320138865        1.09680590724199        0.51523053795195
C            4.31579149371623        1.91267771873456       -0.23862873481149
C            4.95835588437631        3.02198789758779        0.30657289088205
O            5.78520430194675        3.76959629838595       -0.53942564108980
C            6.45891440030627        4.84122124524186        0.07668261389834
C            4.73656933973590        3.30914715113073        1.64906106861230
C            3.91073712121798        2.51288887032221        2.44102993804425
C            3.74104928045762        2.88325284221943        3.83450616952669
O            4.31435689401658        4.05114236358753        4.24744348655047
B            3.75100496096984        4.66583948315238        5.45353510127508
F            2.52344917457542        5.19119790964177        5.13206145084107
F            4.58729538278197        5.64647801945928        5.91584815171649
O            3.55514383443298        3.64276434469295        6.48485110893646
C            3.01222643320671        2.45505699257492        6.08798174840948
C            2.42936674564901        1.61209615885336        7.11127156293771
C            1.86732369310918        0.35285109755130        6.85183508903969
C            1.34625736284240       -0.40476969274733        7.87361059777378
C            1.36728344899935        0.06566884509385        9.17425928044372
C            1.91423526575286        1.30536331471793        9.45062110579519
C            2.43750272783437        2.06754983581983        8.43433018592647
C            3.05759457677468        2.09463825123203        4.74750505802805
C            3.28340174202667        1.40752926208352        1.85888027465271
H            1.58173942575824       -1.54128058473007        0.00655703787038
H            1.18127045121801       -0.12477137933189        1.00279752315005
H            2.53999001905716       -1.20867388943355        1.46625822073715
H            4.47286985709656        1.67910481571276       -1.27449109551815
H            7.09073443183539        5.32071164389237       -0.67275790708684
H            7.08775765764893        4.46585307874979        0.88573950673440
H            5.73466527549371        5.56711535887694        0.44984510359312
H            5.20471953033302        4.15903377749405        2.10836055217102
H            1.84456140246194       -0.03056546774038        5.84803880975451
H            0.91997126318284       -1.37184157013790        7.66158489105896
H            0.95958459990175       -0.53392238835400        9.97178532509688
H            1.93112072836491        1.67226791386841       10.46384253657178
H            2.86851879874806        3.03287635422596        8.63970740182222
H            2.62319785471635        1.16886712081640        4.43027549158436
H            2.63393973811020        0.79519542730204        2.45141091160871
