36
 energy: -6.551225635546 gnorm: 0.000490487775 xtb: 6.5.0 (97a52f5)
C            1.71037660852403       -0.92243916483305        0.05516287440602
O            2.70419493248837        0.05126211001541       -0.15785075570982
C            3.37648627440639        0.48153526414530        0.99226884882875
C            4.33876402304244        1.47658772572633        0.82610041357419
C            5.06821359595509        1.99123699992711        1.89606253710778
O            6.01275597926124        2.98387364286517        1.61196175565886
C            6.76852039475072        3.42468193299376        2.71465475062509
C            4.81020106462722        1.48471482027456        3.16484965610287
C            3.86363825309546        0.48145937596500        3.37273947260639
C            3.66642993109306        0.00103784831533        4.72560322248162
O            4.33706671313942        0.64011880432341        5.73143157764506
B            3.77302101046885        0.50582477729579        7.07915373162192
F            2.61377069507789        1.23990239748417        7.13008881586087
F            4.66811774483388        0.95781008983845        8.01071236756664
O            3.43639578212739       -0.89706325969810        7.34119844237458
C            2.79295924839430       -1.55755560407602        6.33391348493348
C            2.07161417019214       -2.75166306121894        6.64171577903100
C            1.95503641081681       -3.29186931192189        7.89706081703390
C            1.19810520401062       -4.48649318477103        7.93468376160321
C            0.72957517594980       -4.87138567932954        6.72437215187814
S            1.21151230707524       -3.75412003741240        5.49424535027597
C            2.86153774410033       -1.08427257582823        5.03021670646292
C            3.15120646924764       -0.01090262550640        2.27428171317663
H            1.25507835613834       -1.15586443322705       -0.90884433232854
H            0.94514610463782       -0.52718086364674        0.72544036059258
H            2.16228845187119       -1.82711586487899        0.46535101934064
H            4.52375268420448        1.85952700254866       -0.15962693335745
H            7.48714115668874        4.16439825900130        2.35759592740126
H            7.30870111948061        2.58281124733834        3.15128342887250
H            6.11031127435946        3.89113992313947        3.44957287185522
H            5.34280657778062        1.85692684366103        4.01963701975389
H            2.40945483821129       -2.83781521138085        8.76485949265771
H            1.01675531188204       -5.03937110635648        8.84532382014302
H            0.13916718668597       -5.74794472520562        6.53334503462177
H            2.34099091829492       -1.61672562662640        4.25794565443486
H            2.41028628707562       -0.77072672893904        2.42199916085984
