33
 energy: -6.178297022620 gnorm: 0.000599671303 xtb: 6.5.0 (97a52f5)
C            0.96995615404024       -0.27271785709963       -0.07857594849794
O            2.26754220322012        0.14814115578052        0.25065961833130
C            3.01699406982532       -0.73422423902333        1.04697510651022
C            4.19735372152286       -0.22798461770470        1.55084856024785
C            5.01454007798433       -1.02049270815088        2.36307912790621
N            6.21979395366408       -0.76062867497810        2.99240130347933
C            6.59952624218456       -1.89311774082824        3.68481518135401
C            5.64758579581064       -2.88159237619030        3.50850307576785
C            4.63861886645998       -2.33983328742465        2.67077386781299
C            3.44115741555301       -2.87087268268492        2.15324355512349
C            2.63292684278087       -2.09908484800458        1.34837291088801
O            1.43842803800768       -2.58468788875105        0.79373579097559
C            1.17442836034812       -3.95115901818620        1.02053681457506
C            5.73704620989213       -4.22702990752733        4.15369785408761
C            6.71292916433762       -4.22297618139625        5.35395863356247
C            8.02196688086320       -3.44496499364402        5.07867745309752
C            7.79492216123016       -2.06817010871984        4.50450957905927
O            8.56418323319035       -1.15649226046055        4.71127870490438
H            0.44509566711974        0.54387164558763       -0.57663736287394
H            0.43719581747368       -0.55025671547954        0.83204464013023
H            1.03270995035408       -1.13175324516210       -0.74787397692204
H            4.48173647798710        0.78043892734283        1.31989714604472
H            6.73872294502430        0.11512513730208        2.97857270603903
H            3.17871730526283       -3.88120402440024        2.39824108346461
H            0.25668578431768       -4.21727372674002        0.49450530768409
H            1.03356900901713       -4.13011080344324        2.08719926873701
H            1.99355411195591       -4.55729680671279        0.63122933286438
H            6.06333791573423       -4.95871843152455        3.40639861362979
H            4.73548343506685       -4.54251004761898        4.46905105718048
H            6.94477375194568       -5.25371147454836        5.65372844485366
H            6.21127052801009       -3.77625436088973        6.22057694037506
H            8.64703986584807       -4.01045976158452        4.38037291408883
H            8.61202804396658       -3.34298807713501        5.99627269551915
