36
 energy: -6.801031807899 gnorm: 0.000838568537 xtb: 6.5.0 (97a52f5)
C            1.31599439185684        0.78410284594008       -0.68970271906123
O            2.33324117182042        0.03350431734787       -0.08345639774237
C            3.03058645285890       -0.84216864341524       -0.92829668430058
C            3.88963963607994       -1.72917912872617       -0.31461796637637
C            4.60798775557783       -2.65557454260217       -1.07926374958307
N            5.51443287118870       -3.63736499700518       -0.72141377071851
C            5.93727468529807       -4.27685212887670       -1.86864622724789
C            5.30838377157938       -3.71831890007602       -2.96648736322537
C            4.46344617322996       -2.68863377781169       -2.47843631471852
C            3.59582019634315       -1.78199123473324       -3.11661973063169
C            2.89280951540825       -0.86682970990667       -2.36755519160903
O            2.04642044681427        0.06324867687503       -3.00628064323979
C            1.01750428744047       -0.54270473076855       -3.78041748264911
C           -0.24606307887206        0.27215938488967       -3.66881942630836
O           -1.04608282741525       -0.04049984647141       -2.81495896965597
O           -0.37851754984471        1.32637651929371       -4.50929850022590
C            5.52680652122623       -4.19945242467270       -4.36478988417022
C            6.13180530689101       -5.62365330251339       -4.39423948709252
C            7.25754077176882       -5.83694907034320       -3.35288461113275
C            6.88852903233568       -5.37847244863124       -1.96416905058865
O            7.35927752342153       -5.89688282064492       -0.97774465749551
H            0.79243652073647        1.35494667009179        0.07924616998816
H            0.61842833191801        0.10705552414408       -1.18628286250417
H            1.76024135781038        1.46330253064774       -1.41950712096289
H            3.99493857498991       -1.71061593033622        0.75304585969429
H            5.82515860450101       -3.86624616727964        0.22091832063700
H            3.50414472767477       -1.78584035604000       -4.18578786253159
H            0.83955617629852       -1.55234980863078       -3.39806254180421
H            1.35755127431082       -0.62190369765247       -4.81645930602498
H            0.40806905574138        1.43970160660361       -5.07322706333600
H            6.19122059445136       -3.49817832518879       -4.88176687180605
H            4.57453159729060       -4.17219190227154       -4.90761135621229
H            6.50489828082434       -5.85190004549943       -5.40151644619457
H            5.33508793490433       -6.35351929394349       -4.20813203789582
H            8.15713647008700       -5.29750107910323       -3.66596770734880
H            7.54225344345367       -6.89388376268853       -3.30094034592199
