83
 energy: -17.241005010600 gnorm: 0.000573924248 xtb: 6.5.0 (97a52f5)
C            0.96651914171473       -1.13528434129081        0.04304757043594
O            2.19622369823581       -0.47971152945897       -0.20676165895322
C            3.26832323329843       -1.36602144078839       -0.47095534478593
C            4.24045133624107       -1.54611993870564        0.51600182329985
C            5.29437424988551       -2.41613365038423        0.31143037046344
C            5.33186004777575       -3.18869008857205       -0.86010961338846
C            4.39057504962582       -3.02055442148554       -1.84966506688585
C            3.36121383119216       -2.09156787875837       -1.69193493072146
C            2.39099022124414       -1.86306409814956       -2.77583510785901
C            1.88725121839276       -0.58729419992312       -3.02686772441276
C            0.99124079147277       -0.36589400909711       -4.04533603808507
C            0.56344407102907       -1.41271136261262       -4.85344216831472
C           -0.35266295609777       -1.18826538656255       -5.89271620753752
N           -1.11286297736053       -1.00367104970087       -6.75056685029943
C            1.06010093499384       -2.68770863694788       -4.60868491109027
C            1.95719089582354       -2.90971606504753       -3.59074429524427
C            6.44322700076084       -4.19333329459557       -0.74782642011779
C            7.02175040244347       -3.94323611296880        0.61265989353475
C            7.99878834411095       -4.64255976990612        1.30835714879835
C            8.36672013531731       -4.24303405731504        2.59504285220263
C            7.79867893829896       -3.10948700421472        3.16198300543778
C            6.84566204936012       -2.36243329464916        2.45220682083016
C            6.39702399062528       -2.82932840120433        1.19423607287405
C            6.55522562798374       -1.14349997187069        3.22473745471457
C            5.87859302482132        0.01237821486847        2.88155570583517
C            5.77176195238628        1.07198460059001        3.78737496566305
O            5.05855187740546        2.23563608140490        3.49959789320188
C            4.33990372348365        2.22388369962997        2.28635801115133
C            6.41064978798756        0.96818464464739        5.05677804907678
C            6.32101699886879        2.05882497585953        6.04426109092260
C            6.33051377169090        1.78773810460207        7.41400154761394
C            6.26865178577180        2.80316709625808        8.33898021760662
C            6.19460586980012        4.13058329174818        7.93405029518689
C            6.13191065734016        5.16645064500585        8.87890090559804
N            6.07951348558161        6.02233627497593        9.66171337827053
C            6.17950117350803        4.40896309401762        6.57271333615286
C            6.24057962224837        3.39336825373685        5.64846246538756
C            7.15226883289235       -0.17631495756744        5.35472608829488
C            7.22799106170571       -1.21152643388908        4.45329014694128
C            8.04731636445672       -2.47045731605295        4.49540351488944
C            9.38106403400529       -5.18069498297402        3.09896316529952
O            9.93663830176319       -5.14885432088472        4.17818243728948
N            9.57007339428398       -6.11655930468582        2.07260452131928
C           10.50731853826840       -7.22898321454783        2.15360937890583
C            9.84892438296940       -8.55707923706266        1.81400242820264
C           10.81256325283002       -9.75913751111080        1.80656815141501
C           11.35676491199290      -10.05827698197860        3.20495779044275
C           10.13307007863067      -10.99550953628997        1.21217460014135
C            8.76724144844257       -5.84496753174632        0.95635824711171
O            8.71018914780639       -6.46979012517376       -0.08316581532233
H            0.19586150964528       -0.38235948514194        0.21183643090653
H            1.06624575818033       -1.76095757292851        0.93080735795869
H            0.69133255230615       -1.75226452297332       -0.81253678332542
H            4.09499359388716       -1.07026758613459        1.46454640710284
H            4.46349339414028       -3.59984825934865       -2.75150264076699
H            2.20856942812859        0.22742027021030       -2.40103288963269
H            0.60889117684522        0.62390441772995       -4.22765958595085
H            0.72906509076954       -3.50325880683271       -5.22876329984463
H            2.31758028716031       -3.90598799231019       -3.40326712967850
H            7.19651915497220       -4.04218007494803       -1.52811970916014
H            6.06438373690360       -5.21757216506461       -0.82982176576331
H            5.50664040373634        0.12545283151317        1.88450367285703
H            3.75924778172657        3.14514692806504        2.22316719896137
H            3.65610013541813        1.37409175955657        2.26641058385972
H            5.03164307975639        2.18509380342626        1.44385984285671
H            6.36780893762413        0.76555975210419        7.74766875303967
H            6.27595849314691        2.57992013657373        9.39226102752580
H            6.11564128609327        5.43441932753219        6.25074350237951
H            6.21930916726495        3.62013591963236        4.59699267569181
H            7.69853160838514       -0.24213002118261        6.27753187635349
H            7.72613454687203       -3.12696201265289        5.31090841802400
H            9.11119626719187       -2.24907166780294        4.63115093206630
H           10.92510270823592       -7.24194556694895        3.16434713503596
H           11.33668224427381       -7.02232596288054        1.47097616324698
H            9.37000516910198       -8.46599857031764        0.83239187827493
H            9.03111225794320       -8.75044244192785        2.51540535980423
H           11.66470421519444       -9.49259534634017        1.15672847766682
H           10.54317148481971      -10.28989913320785        3.89196748005617
H           11.90683470696992       -9.21278085838189        3.61772543240796
H           12.03022265127878      -10.91588706839418        3.19316626570718
H            9.27464039961366      -11.28949698441994        1.81562509300603
H           10.81470756099117      -11.84575219440533        1.17279239115239
H            9.77494245411976      -10.80738837096313        0.19946025667848
