87
 energy: -17.070657880573 gnorm: 0.000991942505 xtb: 6.5.0 (97a52f5)
C            1.63907029123926       -1.05945714004471       -0.55309562635363
O            1.97972898325295        0.27245454213833       -0.86742412113695
C            3.10846053662386        0.42882065416425       -1.67573026849243
C            4.10245877753550       -0.54769444206868       -1.77496732832610
C            5.18395726717713       -0.35859138990575       -2.61484647594907
C            5.23489928939828        0.77283892762731       -3.44262507829797
C            4.28305882384927        1.76074170021773       -3.33923403002120
C            3.22617236661318        1.62614224057208       -2.43840982389524
C            2.21835705363930        2.69386388872243       -2.30579785906563
C            1.61086387806464        2.95357516886345       -1.07894626616836
C            0.68415226844207        3.96083696509411       -0.94383756656326
C            0.33353075894248        4.73398401636170       -2.03062440464417
C           -0.68041709095869        5.86001150518524       -1.86440778883862
F           -1.71331280632813        5.40488630376064       -1.13372645488900
F           -0.07960077989375        6.88204049867501       -1.23100629079086
F           -1.10764779011427        6.25220918176517       -3.07735204485845
C            0.92156935824985        4.49010297923174       -3.25482188748960
C            1.84950756419444        3.48351958994461       -3.39522375398649
C            6.35900245218845        0.60796927160746       -4.42855291130943
C            6.93470996318394       -0.73733145107485       -4.09899882731315
C            7.92643912339635       -1.47258566654000       -4.73529730743835
C            8.30298222424508       -2.72322926705609       -4.23843140114387
C            7.73363404677610       -3.21193226455974       -3.06934313288905
C            6.77031744963063       -2.45554418691239       -2.38533677170547
C            6.30440672403657       -1.24787738807210       -2.95462239768348
C            6.53736558899528       -3.08790773443132       -1.07755474949703
C            5.92638489892653       -2.60062992796908        0.06310235069876
C            5.93362734561739       -3.34719690301234        1.24452066132363
O            5.34221469749675       -2.90223139609451        2.42551710149633
C            4.87163040310807       -1.57467679402581        2.41080084062565
C            6.57868083307342       -4.61714628302531        1.26073856762556
C            6.59212595270413       -5.43949799035075        2.48523557845787
C            6.53293254987588       -6.83151066803773        2.41449868406343
C            6.56142408587615       -7.59807667256809        3.55699765828230
C            6.65338202855305       -7.00098066480401        4.79741861823203
C            6.65807819904808       -7.85409687682507        6.06049439489555
F            5.38414461411848       -8.08320550247930        6.42249655363076
F            7.28200153722120       -9.01599064675332        5.79852895191794
F            7.30509762436772       -7.18991177620232        7.03424312259759
C            6.70376852631947       -5.62527887441644        4.88608851026599
C            6.67543221577456       -4.85481320895662        3.74704006513746
C            7.24647482546705       -5.06043133402665        0.11879293656955
C            7.24141550448399       -4.30006203891855       -1.02732260590344
C            8.01674382458212       -4.47024663680569       -2.30465250799628
C            9.35097775773889       -3.27203418740608       -5.10972647703202
O            9.91759614155118       -4.33870985689134       -4.99416877626092
N            9.55652688104495       -2.30509396090526       -6.10177972122087
C           10.50118536931555       -2.45643391525691       -7.19878233687363
C            9.80088720628287       -2.44269521143275       -8.54837694980589
C           10.74997351578087       -2.54146465240951       -9.75906741715247
C           11.47517854717525       -3.88927096752598       -9.80493180411869
C            9.99140652315734       -2.28826547345303      -11.06544269672281
C            8.71552322679401       -1.19695992655500       -5.94334979765408
O            8.64448739074338       -0.22053907885720       -6.66014113652501
H            0.64125783667413       -1.06024233023407       -0.11136184045566
H            2.34636704941302       -1.46480597718807        0.16911651201484
H            1.62752721213716       -1.66151139533399       -1.46280330350434
H            3.99756738134035       -1.47530987563969       -1.24952889503027
H            4.36459745697203        2.63743612676127       -3.95488653520310
H            1.87192710352953        2.34213609919306       -0.23202997217902
H            0.21620365372564        4.15629001365976        0.00647229696720
H            0.63636023017664        5.09769861633303       -4.09730346719351
H            2.28274015998506        3.28866494321729       -4.36060412491064
H            7.11080708632919        1.39539998251538       -4.31023811415221
H            5.99208890436039        0.63355568035642       -5.46003801348699
H            5.51243405363385       -1.61311667513424        0.05364327001678
H            4.48115051295200       -1.34163703562699        3.40251737382660
H            4.06714851489045       -1.47661307889552        1.68279454219168
H            5.69211407054038       -0.89373196368833        2.17969942643023
H            6.44404085220405       -7.30639386043693        1.45284759197873
H            6.51278272023791       -8.67269294608436        3.50095120422898
H            6.76660720385253       -5.16826427513585        5.85952209898550
H            6.70829181651320       -3.78139970752150        3.81955016608566
H            7.80805393996588       -5.97629971896114        0.14289688942317
H            7.67847989687205       -5.35104245029923       -2.86056519968222
H            9.08923658607104       -4.57592394015798       -2.11050850679225
H           11.04669986618246       -3.39135105435343       -7.04159614838319
H           11.23038025527170       -1.64373041343327       -7.13041125739782
H            9.20689158780190       -1.52398599531179       -8.62025731691850
H            9.07360234904679       -3.25982820946399       -8.58925197239345
H           11.50939142746590       -1.74767916101714       -9.64660812685614
H           10.75940428287162       -4.70836290833556       -9.87067541280651
H           12.08550833732450       -4.05412303713200       -8.91715394565914
H           12.13231435615273       -3.95711815789791      -10.67256132353517
H            9.22088456933759       -3.04424584964486      -11.21493572310041
H           10.65829956609285       -2.32254099009531      -11.92756888723738
H            9.50122061147459       -1.31411553234636      -11.06122108505222
