87
 energy: -7.840018365412 gnorm: 0.011658847999 xtb: 6.5.0 (97a52f5)
C            2.24224490595144        0.19239290071783        0.08300542303579
O            3.28411544035967        0.70826156040137       -0.54855114790815
C            3.06659374253745        2.00151162027238       -1.05511379575155
C            3.78370276493193        2.38167324165100       -2.15783170387362
C            3.63440070945449        3.56687712411323       -2.71668623250003
C            2.77694130070132        4.44799782234130       -2.22306689323794
C            2.06327198017354        4.16314688513161       -1.15832503511838
C            2.16240647068556        2.96374812018331       -0.51585726812184
C            1.40280982076031        2.75011146918979        0.67462623348082
C            1.84656106426140        2.49476567554373        1.89553454749906
C            1.10991698277220        2.32592817883003        2.97322860609015
C           -0.20241222408605        2.37953159544940        3.03565266113894
C           -0.93368616372672        2.22313012344884        4.14818975129208
C           -4.20499099421414        5.03366472508870        1.35964017194295
C            0.04032312613390        3.36910286084066       -3.39576728130431
C            5.26890420416903        6.24952472738991       -3.65520294519682
C            6.29363899166591        3.87092337234552       -5.07352430281110
C            7.37188631118274        3.24774536806948       -4.82325223649131
C            7.58229589178023        0.06007632832396       -5.93228024496490
C            7.18448419624141       -0.48273385912907       -4.77246185626253
C            7.91300529505953       -0.62851937448553       -3.68181247702753
C            7.54828588014487       -1.20054236837085       -2.53754478810409
C            6.38035958960582       -1.73660173389518       -2.23457191838402
C            6.09196462428818       -2.34586098673839       -1.09807263339859
C            4.96283743918957       -2.89807085305806       -0.78996475932974
O           10.54922004559989       -3.34491106113629       -2.39278375478456
C           10.18331006046442       -3.98542446326435       -3.41938832985582
C            8.98787530350258       -4.62595571193794       -3.55957003335560
C            8.06427706359874       -4.63271084069895       -2.60645864903608
C            7.01940327953227       -5.38152104985446       -3.01085904952956
C            3.79658444832896      -10.27660884723528       -2.37835017803381
C            3.13366853365095       -9.80369719129071       -1.32430901053130
C            3.29606915827681      -10.16671108473074       -0.07069770622173
C            9.24779082907509       -5.78176899334982        0.72191904364907
C            8.51855566404097       -4.78091748423538        0.62609535798139
C            6.08948668221306       -3.38514296354859       -5.27849324611067
C            5.04005956410506       -2.62893494191716       -5.35055203192275
C            6.56721176702111       -3.71529071339299       -6.43524177907053
C           11.10263111585864        1.34480941146327       -7.36602188012963
O            9.52637868927222       -1.49093400428397       -8.84326781347360
N            4.77181024538605        2.77785955161579       -9.99436693357906
C            8.97148537363595        4.10054113162003       -8.16462007858821
C            9.87380033976947        4.50449622913014       -8.96819313487142
C           11.20066655028129        4.48520386557270       -8.76293832283995
C            9.99779268986629        1.62530161106507      -12.67696811022483
C           11.60550396211250        8.89034458294365      -10.70362568348500
C            7.76818646197610        8.13711983092293       -5.80283529492748
O            6.89048196956505        7.70994269876431       -5.11636476591902
H           -0.25669408491190       -3.68548134983906        0.38682480990606
H            1.00591333107757       -0.96015332014062       -3.03200583815510
H           -1.64542496701156        0.60810783335613       -0.01707596535804
H            1.50614815412792       -1.56530405986128       -2.91721480315367
H            1.68400607057553        8.01514696324839       -0.13142597125559
H            6.77093081167887        2.32627217344556        5.29741653823672
H            2.78307876433090        1.67488123500975        6.96804244924125
H           -2.48745663951492        2.18991677723308        6.05106680500927
H           -4.98095449286626        3.44168682169027        1.97623973968515
H           -3.55732992706058        6.27349663158076        2.59845401589227
H           -3.44969664497973        5.02401805668315       -0.33996401415389
H           -1.31770142300742        3.71183715168306       -4.68836080245110
H            5.84025933363760        6.57469846445691       -1.89338223761142
H            5.97267329796193        4.70384853847519       -4.51368029505551
H            7.57230429287158        1.85950783621611        1.01986101330374
H           13.55774712851433       -6.03582433780244       -0.75413846879994
H           11.92917712292433       -0.07105535282448       -0.34047722174208
H           10.85662728007546       -4.04926784524312       -4.26394965276005
H            7.28670517396981       -6.39964406604616       -2.92851029422153
H            3.02600631655968       -8.45845965440582       -6.78374898954253
H            3.55079437864241      -12.57538397726004       -3.22061443982353
H            2.73667356741405       -9.75376819208021        0.71728051966741
H            8.12176039542043      -10.20424954170831       -0.68361056432444
H            6.28178391557784       -8.51893425603980        3.13746298446108
H            7.30953725471447       -1.61327511882897        3.53541128675400
H            6.52044947071276       -5.26586246440761       -7.26124948439188
H            5.05107859840168       -2.68140790291670       -7.16959646730340
H            7.83474244392780       -2.83925598034057       -7.27513955055931
H            9.34236666907914        1.24388653025196       -8.01446536870843
H           11.59585339281383        1.80835728724011       -5.62210064725535
H            9.37722744770220        8.07878818682854       -5.60690388807502
H            7.73246780362065        8.70836200905376       -7.32262160074555
H           13.64932389558598        4.71935981439182       -8.39149227590429
H            7.43005784644717        5.31202722625484      -12.90504443911994
H           12.17145018963337        0.49074183141609       -8.63249933602002
H           13.78576095139035        4.56814331986919      -13.39650608042785
H            9.99028409065319        8.51716523666287      -11.44294041993435
H           13.20141598395229        8.36038596729054      -11.41468583924895
H           11.61632166159286        9.60424743555899       -9.03659370846697
