85
 energy: -17.126321076950 gnorm: 0.000753608655 xtb: 6.5.0 (97a52f5)
C            1.03076028098962       -0.37615801988642       -1.04662603912185
O            2.27213682426408        0.01673754772051       -0.48916874130106
C            3.31708226760512        0.11347571554009       -1.43847416169796
C            4.32798071075489       -0.85127490748298       -1.41116747912970
C            5.35918800146302       -0.81265178827520       -2.32961086156068
C            5.33402754498419        0.14825732195705       -3.35307071023594
C            4.35500679270502        1.11373690179922       -3.39370603915580
C            3.34904401076712        1.13902352386475       -2.42593815519584
C            2.34990508651298        2.21967715547278       -2.42064217547695
C            1.85925643492459        2.73400993958231       -1.21972334335793
C            0.94112294634590        3.75542813813276       -1.20611641550206
C            0.47712170009668        4.30311590272589       -2.39811307774847
C           -0.49786473113746        5.38953273949695       -2.40530926939255
O           -0.95271723401886        5.91451610189531       -3.38614305444153
C            0.95838209070031        3.79591618103038       -3.59773757516100
C            1.87772518085179        2.77497763490590       -3.61180528707824
C            6.43493388893417       -0.14990705473449       -4.33080500708656
C            7.08202700000801       -1.38627570790977       -3.78225286955376
C            8.08880833276947       -2.17831429176607       -4.31738923665410
C            8.52875646990568       -3.31356430756779       -3.63323406951734
C            7.99953566263763       -3.62487400343088       -2.38748459193745
C            7.01530583478023       -2.80744614731353       -1.81008400011949
C            6.49725027953656       -1.71926250233525       -2.55077736358955
C            6.78372207949758       -3.27696722901769       -0.43418609643622
C            6.10523350222254       -2.69942027944512        0.62238693059939
C            6.06882969802508       -3.32255260658136        1.87384201783661
O            5.35897807763027       -2.79630450669820        2.95219683834709
C            4.58070371233860       -1.65493705424759        2.66891353662866
C            6.77973579941647       -4.54339742072854        2.06334597832174
C            6.77149725583758       -5.23336386009688        3.36497050188003
C            6.86427475784447       -6.62568596097494        3.43960571179609
C            6.88068716272062       -7.27286429402305        4.65163497889502
C            6.80651556299576       -6.55279693762323        5.83985712413799
C            6.82826997513234       -7.22310879766286        7.13656103434674
O            6.76107552024678       -6.67814451900494        8.20570673875761
C            6.70774150042017       -5.16975570169994        5.77533340463319
C            6.68936297757593       -4.52366083270893        4.56335830093178
C            7.51763450565473       -5.07345167372635        1.00288347903796
C            7.52531132487506       -4.44846703195774       -0.22124783425374
C            8.33012105453550       -4.75056001503286       -1.45374808878456
C            9.56567928811358       -3.97033603071672       -4.44366209758321
O           10.17482971830272       -4.98479203368333       -4.17148444049447
N            9.69768938907583       -3.18089067698113       -5.59439561133851
C           10.60957312530428       -3.48424265238134       -6.68858828899751
C            9.87786513209144       -3.62117185476268       -8.01426601324606
C           10.79726443359555       -3.87664205308854       -9.22361140241039
C           11.49705010874107       -5.23384419678334       -9.12755471499772
C           10.01366021849364       -3.76155884626077      -10.53349331230605
C            8.82958608008638       -2.08112480304590       -5.58346505663447
O            8.70598193956199       -1.22845627460695       -6.43893489362692
H            0.28561978769987       -0.41492865796754       -0.25134334271179
H            1.13488672060629       -1.36415608200099       -1.49658075034191
H            0.71571528529485        0.34079168710381       -1.80487519476985
H            4.23068461728544       -1.66965330114843       -0.72684289411749
H            4.38210676141728        1.86013459751540       -4.16588777246264
H            2.21065471059610        2.31000311333518       -0.29489521773632
H            0.57222322398904        4.13977553851593       -0.27084147660499
H           -0.84725133846363        5.76189123371112       -1.45197714417378
H            0.59418760385150        4.21871828420548       -4.51842675578586
H            2.22615612918895        2.38128650688917       -4.55044431066337
H            7.15164555505340        0.67603675294060       -4.38723814236487
H            6.03772116033353       -0.32914617311042       -5.33542742983131
H            5.67559201515907       -1.72707697573414        0.50004715636383
H            4.01541643856413       -1.39475857952068        3.56479437058926
H            3.88043723294408       -1.87219972034977        1.86110977503174
H            5.22821367493703       -0.81769620899779        2.40512741471998
H            6.90255045272444       -7.19955724215422        2.53033807325399
H            6.95039468060210       -8.34631032178806        4.69113945250726
H            6.91290681399531       -8.30120297192932        7.14631507784941
H            6.64241309586360       -4.61363405382166        6.69489310668591
H            6.60476585129314       -3.45195666570060        4.52505841948100
H            8.11591854753522       -5.95406849228449        1.14712138610724
H            8.04749885494470       -5.71581165798896       -1.88676997265019
H            9.40247862795457       -4.77388329212588       -1.23326849364728
H           11.14462160568136       -4.40372268070744       -6.43473193402315
H           11.35603507855206       -2.68620112718784       -6.73896871371493
H            9.29370904552518       -2.70952258825542       -8.18435784489989
H            9.13937046449096       -4.42597742608418       -7.94260697888527
H           11.57227669977411       -3.08997592019762       -9.21894329516093
H           10.76563918847257       -6.04043165852821       -9.08261373285737
H           12.12448724914307       -5.30694563596918       -8.23936752359714
H           12.13234333374757       -5.41473514467240       -9.99521109243533
H            9.22648620274373       -4.51388122672450      -10.57713182929512
H           10.65947525394901       -3.90971080036354      -11.39949878108500
H            9.54044009775845       -2.78404103872725      -10.63230280974215
