41
 energy: -6.577304633017 gnorm: 0.000832128190 xtb: 6.5.0 (97a52f5)
C            1.03368269763442       -0.55551753490948        0.48114325008933
C            2.25145581730396       -0.06352941210700        0.37567516018777
C            3.23796741746713       -0.06345734376480        1.48914817039639
O            4.47330422867230        0.50542831088612        1.08733955319051
C            5.43250816801108        0.50461419986701        2.09060189959064
N            5.12043799386360        0.00175445291450        3.27329051643997
N            6.01520979548689        0.00938063902657        4.18146857647995
C            7.19745636830641        0.51956298350488        3.88258828019536
O            8.18232210477739        0.53629351457906        4.85875737241322
C            7.76651774793705       -0.04174785595825        6.08122503198482
C            8.87152572188835        0.03325929740764        7.11680069076018
C            8.42053710641663       -0.60052933186495        8.43486750051320
F            7.35080545562953        0.06203402894025        8.89405389211969
F            8.12388341179622       -1.88945408139313        8.22457286402430
C            9.56841452594712       -0.50231754160715        9.47419666066653
F           10.64751958012469       -1.09078785734486        8.95341726566878
F            9.80049628948587        0.78986190449491        9.71380281880165
C            9.18361111423104       -1.21584344530734       10.79607551764676
F            8.03283154925163       -0.71138019338089       11.24526148777897
F            9.06807137856833       -2.52412849563503       10.56034940663702
C           10.28179492562888       -0.98971065845156       11.86902139669443
F           11.45652490661214       -1.38812629158242       11.37775021724255
F           10.31306422162216        0.30677817940176       12.18277945621803
C            9.96368232240756       -1.81169057824337       13.14499943266832
F            8.75763541145703       -1.47105970191181       13.60037755852507
F           10.01061049132711       -3.11187155052620       12.85233361686963
C           11.00236396630011       -1.53305410011071       14.26621001851235
F           12.22227612734746       -1.83720916262612       13.81621908608426
F           10.94209158069354       -0.24357531224824       14.60832553835380
F           10.69464716689767       -2.30043596364857       15.31533172537635
N            7.51144395630415        1.02393166794462        2.69883411636732
N            6.61748206266263        1.01596070042168        1.79164615967414
H            0.34512043505482       -0.53957678244464       -0.34432868409540
H            0.68801925728153       -0.99235550966391        1.39920012564482
H            2.58559458692862        0.37445196190767       -0.55723756137986
H            3.44671888977784       -1.09037216781413        1.82403443922966
H            2.86750680566589        0.52954713128338        2.33870127273227
H            7.48473418476169       -1.08810363958525        5.88431990364280
H            6.86962366454277        0.49544424945871        6.42776523561912
H            9.15255124210071        1.07957951712726        7.29005301923299
H            9.76598532182304       -0.48467822703369        6.74883801120449
