81
 energy: -16.070355560538 gnorm: 0.000778807428 xtb: 6.5.0 (97a52f5)
C            1.15569903581137        1.10050934006263       -0.24899338425832
O            2.40376224965955        0.51382084883403        0.07041070583883
C            3.44589644784717        1.45847167167500        0.24105983409217
C            4.43690862384051        1.53438840555846       -0.73876380368675
C            5.46348308099328        2.45504890548250       -0.62856716150023
C            5.44963682548302        3.37818912646285        0.42808604012477
C            4.48802158475500        3.31462555482716        1.41101288761715
C            3.48975064125492        2.34087045590562        1.35762342377148
C            2.50467429369208        2.22605558833499        2.44579768789289
C            2.04172712982742        0.97437010844662        2.86142427171273
C            1.13479498530764        0.85956420433930        3.88707663574518
C            0.66379018275013        1.99580179534367        4.52621387146199
Cl          -0.47894726273174        1.85389391243954        5.81136564105831
C            1.10949861064325        3.24664933226358        4.12812585698723
C            2.01810450493280        3.36092933864493        3.10327946398092
C            6.53754257825833        4.39048197505141        0.20671002544911
C            7.16705209858588        3.96915905499954       -1.08748757624878
C            8.16271420258457        4.58237652536361       -1.83651673063125
C            8.58906720853076        4.01238964378214       -3.03941725938849
C            8.06013479559368        2.79924595166537       -3.46182900372085
C            7.09034235978364        2.14041050753747       -2.68998210183819
C            6.58357358260882        2.77138654645377       -1.52815581468592
C            6.86335751806859        0.81247264368871       -3.28160023519378
C            6.19891287164408       -0.29946786686595       -2.79447195462638
C            6.16518584682854       -1.48804483599625       -3.52687810043620
O            5.46385587848072       -2.61607796570599       -3.09443339181108
C            4.69053793494874       -2.43799479915689       -1.92827321683023
C            6.86707870283339       -1.56203929297310       -4.76518670896927
C            6.86604735881541       -2.79964535816113       -5.56503477548665
C            6.92991136598765       -2.75080862470614       -6.96233526592453
C            6.95147640641898       -3.90373076558401       -7.71044281170317
C            6.90989881574573       -5.13978713120621       -7.08472901394026
Cl           6.93318004358672       -6.58693247299941       -8.02444169947565
C            6.84434741873950       -5.21041994077548       -5.70226276079469
C            6.82209997951635       -4.05681061143186       -4.95618002396980
C            7.58914550550333       -0.45184408399098       -5.20629319616162
C            7.59276402507543        0.71289687200591       -4.47462132243659
C            8.38490309606967        1.97467547379029       -4.67144362079611
C            9.61639211230202        4.88380704609323       -3.62748427801748
O           10.21453397151202        4.71310675363805       -4.67115079805396
N            9.75881305684560        5.95178029043808       -2.73006457204265
C           10.67085608633752        7.06865668968354       -2.93469134935257
C            9.94186599506010        8.40260422224820       -2.94758204821143
C           10.86637695030091        9.62790588063239       -3.07482871986879
C           11.58130293265667        9.66064909343406       -4.42685524831700
C           10.08428164367107       10.92284220590329       -2.84285015624863
C            8.90537915831873        5.83225220595628       -1.62445228578847
O            8.79613920176145        6.60017022661180       -0.68933503933494
H            0.41345540707771        0.30982735417038       -0.36335105346082
H            1.24530864856980        1.65351179979070       -1.18471356633971
H            0.84444056577564        1.77696371954517        0.54704067328571
H            4.32985249183834        0.93362750601848       -1.61918475686599
H            4.52198766995957        4.01024537491222        2.22903478970222
H            2.40430669343621        0.09504537248202        2.35781332585738
H            0.77833856558405       -0.10507904304858        4.20583865748444
H            0.73162019396658        4.12003784294320        4.63182153817557
H            2.34905539665672        4.33424502695012        2.78619291397851
H            7.26815340038565        4.37450244369023        1.02222665113358
H            6.12907571781704        5.40378847421478        0.13170634832568
H            5.77931785574215       -0.26802248211978       -1.81065255916925
H            4.12688681716276       -3.35336138530314       -1.74361334242413
H            3.98710900722505       -1.61588377210464       -2.06750843857587
H            5.34193611565275       -2.24719391371417       -1.07446297303031
H            6.94358540321163       -1.79437990630216       -7.45472220855463
H            6.99855611757541       -3.86403422729532       -8.78541363052297
H            6.81001836951022       -6.17667394604991       -5.22846153019528
H            6.76804449492003       -4.11136525123333       -3.88316375115252
H            8.17833405974645       -0.51195139201524       -6.10269925639450
H            8.08862294281987        2.49166145426596       -5.59017018302189
H            9.45855964609487        1.76613217824628       -4.72617394640866
H           11.20351368564826        6.90025829535788       -3.87495687367795
H           11.42014531775734        7.04533398882198       -2.13803826169423
H            9.35001459248640        8.48433450110244       -2.02880630056115
H            9.21064673817137        8.41255858100425       -3.76213979689767
H           11.63230956819979        9.54475878824994       -2.28360081852846
H           10.85909967191814        9.70239926974101       -5.24188731716818
H           12.20217473472248        8.77818675030438       -4.58094615228495
H           12.22523149982555       10.53645358662716       -4.51399294848017
H            9.30736301598738       11.04247782001880       -3.59763157775216
H           10.73370576521586       11.79717534850659       -2.89724635825898
H            9.59812819227236       10.92750519415035       -1.86665821250514
