81
 energy: -16.021747161915 gnorm: 0.000571814582 xtb: 6.5.0 (97a52f5)
C            0.95733727457691       -0.88803843038429       -0.82870967297584
O            2.24188385487168       -0.31748216475811       -0.65745508747730
C            3.27730688820205       -1.06081757300362       -1.27723091518214
C            4.15922468441191       -1.77196886343526       -0.46195133796238
C            5.17242570072999       -2.53178489578315       -1.01826952017393
C            5.25168896171244       -2.65715354532018       -2.41334392893645
C            4.39966224478788       -1.95617518591896       -3.23639590255764
C            3.42034197533715       -1.12348819739362       -2.69276816483117
C            2.56295590434516       -0.31248460643446       -3.57312725956168
C            2.15595419295458        0.96803042043362       -3.19436599301775
C            1.37610684956492        1.73979815817511       -4.01818131910228
C            0.96155132792570        1.26774684122175       -5.27198373476955
F            0.16254348608986        2.06076622341363       -6.12509064192308
C            1.36987974715967       -0.02028718168970       -5.64836697296634
C            2.15068391499554       -0.78780073493033       -4.82061203415608
C            6.29716316193532       -3.68097681885247       -2.75379851819008
C            6.79052581707994       -4.15387274012740       -1.41896581384698
C            7.68146375016144       -5.17209581793413       -1.10485551896213
C            7.97418274041031       -5.46301726310912        0.23071907011363
C            7.42065530643302       -4.69652162684298        1.24870200839875
C            6.56209614455990       -3.62825863662729        0.94533885719700
C            6.18325060024010       -3.40365033932412       -0.40015193529427
C            6.29111304893891       -2.89395637984661        2.19119554925657
C            5.72202117942717       -1.65143314339188        2.40864758703924
C            5.63117896661184       -1.12469012979818        3.69903586778622
O            5.02287966755988        0.10465634015559        3.96541085120037
C            4.42354490531919        0.73685442741649        2.85571219014679
C            6.17561153729607       -1.86192098385116        4.79090857516454
C            6.11651253583331       -1.33822562276655        6.16722828681709
C            6.01900261752334       -2.20298863844170        7.26114839271384
C            5.99078353718302       -1.72273682036581        8.54675267187461
C            6.05922624322640       -0.34688162075755        8.80932171885942
F            6.03425318594282        0.14882172926500       10.13171162485892
C            6.15319698354019        0.51827532800432        7.70994579872848
C            6.18013040272658        0.03172163240183        6.42729230204500
C            6.80627870569635       -3.08222442536485        4.54224963987818
C            6.86952569641525       -3.58629317511558        3.26403270367242
C            7.60576488040050       -4.78458859430834        2.73426564451548
C            8.91416403159629       -6.59282681378525        0.26446361784795
O            9.38714951919996       -7.12458395449690        1.24945596124384
N            9.14771063856640       -6.92529018516005       -1.07770872516418
C           10.00941679420117       -8.01894052423166       -1.50544513220762
C            9.24627904042233       -9.06651923105550       -2.29940572718479
C           10.12018864587532      -10.21721152091068       -2.83235873998796
C           10.70271595196910      -11.05989772870509       -1.69629943725382
C            9.32762492254190      -11.09276182907895       -3.80555526577336
C            8.42533702085539       -6.10863057215980       -1.95897127261753
O            8.40899346885459       -6.16432683175326       -3.17273501724452
H            0.22144798032648       -0.26108837153797       -0.32417912480177
H            0.94345375376212       -1.88708653141616       -0.39155179914143
H            0.71302127230610       -0.95073439782167       -1.88915732084434
H            3.97445132630539       -1.78954552821089        0.59303193968166
H            4.50768146222741       -2.04119513459031       -4.30184554315354
H            2.46261560753183        1.34335629924457       -2.23353503161876
H            1.06963855996075        2.72458855524823       -3.71172764917780
H            1.05673485574060       -0.39893506373275       -6.60557079593595
H            2.43854873658190       -1.77860664856629       -5.12538334436598
H            7.11052968027979       -3.23921051769846       -3.33883191105649
H            5.87074845195846       -4.50879570989568       -3.32993288692679
H            5.42570652117565       -1.05770030528627        1.56914386243004
H            3.92288636013751        1.64224712612252        3.20113247809806
H            3.68216573495304        0.07694543763367        2.40315836369852
H            5.18722720566156        1.01403513162389        2.12790655402238
H            5.94702174540684       -3.26221614795954        7.08693094961343
H            5.91269019691463       -2.40053894796662        9.37879030292089
H            6.20302522955675        1.57758865689318        7.89205635059075
H            6.24928757323042        0.71104598044565        5.59619970657963
H            7.28181068244437       -3.61816321255832        5.34277317867531
H            7.18433284555312       -5.71546213839538        3.12789830613689
H            8.66738584299184       -4.74942496268477        3.00016475581719
H           10.46748641832289       -8.45551314617284       -0.61348724614944
H           10.82277593669119       -7.59774311411592       -2.10355518377992
H            8.74279475175082       -8.57065730725700       -3.13703317154177
H            8.44054177649733       -9.47783377598352       -1.68305064198237
H           10.95973395203415       -9.76231092156668       -3.38711501962733
H            9.90573816629133      -11.49610903736588       -1.09443825022125
H           11.33207992258458      -10.46837604992426       -1.03148134794063
H           11.30946929192459      -11.88008950730923       -2.08150761885102
H            8.47789629569619      -11.55352920138649       -3.30222213116885
H            9.94338661063208      -11.89500761171722       -4.21339334948542
H            8.93886659631374      -10.51102164937802       -4.64208271056489
