97
 energy: -18.677452567548 gnorm: 0.000686160376 xtb: 6.5.0 (97a52f5)
C            0.85634940619678        1.46602947510847        0.39049750284167
O            1.98826587347776        0.65116516899842        0.14485412364379
C            3.05778786162516        0.88679183921373        1.04561916760837
C            4.18420140489247        1.56070039726022        0.57116495908584
C            5.24221245922340        1.84603195466143        1.41699969289874
C            5.13736843865305        1.52568584466732        2.77935885000713
C            4.04070249640475        0.85196025441486        3.26671985944829
C            2.99563570213930        0.49222759563136        2.41309595981391
C            1.85247710946743       -0.28023713698706        2.92509841285903
C            1.20468706397942       -1.22493333217682        2.12612602165171
C            0.14592183616619       -1.95580617935946        2.60262262635225
C           -0.32250123440570       -1.77967255856493        3.90874020114061
N           -1.41225376657903       -2.52220451008012        4.39803292975792
C           -2.07506552676098       -3.53777935921824        3.57968988188137
C           -1.94096351484535       -2.30735496231427        5.74525139731015
C            0.32726556517569       -0.83527666089496        4.71028886969759
C            1.38667936519566       -0.10616873894344        4.23157264071746
C            6.30672996585342        2.11922357629630        3.51250102047388
C            7.07565046136312        2.84060848889798        2.44603897770060
C            8.18368545455517        3.67210252485491        2.55208443080930
C            8.72062441609813        4.27644129755686        1.41012758204437
C            8.18164007847047        4.00431576295931        0.15861382332721
C            7.09656481618085        3.12298746741184        0.02860094554036
C            6.48793941676101        2.59554422383208        1.19498835539343
C            6.86196688027807        2.89770441332479       -1.40553143630280
C            6.08465784652611        1.96116691356211       -2.06595106970801
C            6.06010507831562        1.91081544551083       -3.46137672795650
O            5.25601002772848        1.00928871205712       -4.16506828367307
C            4.40522507529069        0.21050935203170       -3.37182646920836
C            6.87926658025563        2.81131803046580       -4.20424055229144
C            6.88234680500046        2.80073779635135       -5.67733359330277
C            7.09423361137797        3.97700291260678       -6.40349076288163
C            7.11800769145731        3.97194912975058       -7.77565231207579
C            6.93502255598697        2.78833800614722       -8.49790605202389
N            6.96798560617097        2.78060411425778       -9.90416028909295
C            7.09799612182979        4.01806902626303      -10.67348404514088
C            6.88568585345443        1.53359830972954      -10.66461238653102
C            6.72016937300629        1.61208750121065       -7.77261517927986
C            6.69352324480427        1.62153367985135       -6.40093595986590
C            7.71056491164299        3.70019272437742       -3.51858641441733
C            7.70813247473412        3.73700561091099       -2.14405805007206
C            8.58828142856673        4.50229494166044       -1.19644137114131
C            9.84579172386145        5.12729210333456        1.82074420848963
O           10.54574973667166        5.81550201403147        1.10280945427637
N            9.93569442809420        4.98211390752461        3.21319328188528
C           10.88319990562707        5.70850455978482        4.04667055327893
C           10.19175577643917        6.74520073380327        4.91690740674029
C           11.13543069398989        7.49976807911587        5.87171264274973
C           12.14775364224552        8.35610494022064        5.10885462468334
C           10.33690158919698        8.35494963618321        6.85805635307942
C            8.94731633907527        4.12687744223209        3.72153513517577
O            8.75514554465625        3.82903563426479        4.88482097803724
H            0.07236990064458        1.20955212760345       -0.32279170196376
H            1.13020121970848        2.51435451291753        0.26638718444403
H            0.48915205480525        1.30375254981869        1.40399960663607
H            4.16604520446049        1.93658990706706       -0.43175662890028
H            4.00272508278442        0.59331329732452        4.30872103125480
H            1.54870704298539       -1.36821031635316        1.11649491355259
H           -0.33563149377286       -2.67178306810455        1.96118340644138
H           -2.51730430733091       -3.07631956998576        2.69886199035096
H           -2.86564434650199       -4.03695052281492        4.13591011208115
H           -1.35538957065214       -4.29114493238147        3.26525610444625
H           -1.18045771852317       -2.54482303858788        6.48662390793633
H           -2.80752801491878       -2.93770776739398        5.93306691886886
H           -2.24522830080471       -1.26938447499732        5.86559067785003
H           -0.01064484924465       -0.67904546272755        5.71896939786711
H            1.85707642197763        0.62806343261171        4.86186994566929
H            6.91924305033432        1.34099706735751        3.98004370057248
H            5.97656421239338        2.81134968382152        4.29443798506365
H            5.56317050425278        1.21966200204417       -1.49707631237519
H            3.78441036659698       -0.39707211117608       -4.03144779716757
H            3.75637046819040        0.84276536645562       -2.76422103576106
H            4.99687270886515       -0.45221628822788       -2.73895401780491
H            7.22263529596991        4.90368891283478       -5.87192739993662
H            7.28599334136898        4.89196325006917       -8.30618343690461
H            6.31641069482873        4.71922389438109      -10.38719513051770
H            7.00570155857173        3.82839729800121      -11.74079616232858
H            8.06994585279600        4.47159907691244      -10.48912384392678
H            7.65894733648851        0.84331127614639      -10.33285988823743
H            7.02705496033888        1.71210183508500      -11.72847442396029
H            5.91003982810422        1.07312506535916      -10.52165925694958
H            6.56502522161895        0.68803329091822       -8.29997989874268
H            6.52127398655992        0.70745778953826       -5.86060684159039
H            8.38467515401080        4.33761174348770       -4.06047815147904
H            8.42314728730046        5.58140191727438       -1.28419715167776
H            9.64789107200079        4.30138579568206       -1.38695801377915
H           11.62307844905029        6.17469483593188        3.38992153483587
H           11.42150136950160        4.98301745976282        4.66378369984483
H            9.40567343604434        6.24727819817896        5.49594932164782
H            9.66723900860107        7.46565141876195        4.28093721037825
H           11.69349520080355        6.74158871617140        6.44914407716787
H           11.63729153960444        9.09331504777801        4.48928403293573
H           12.77916790327811        7.75530236599563        4.45417435940581
H           12.80278611661241        8.89881721053340        5.79146244689720
H            9.76218927231146        9.11517523174493        6.32916338578713
H           10.99161429801006        8.86886542268615        7.56286291674314
H            9.63365648441168        7.75166244885396        7.43344530985771
