85
 energy: -17.176786810238 gnorm: 0.000778264475 xtb: 6.5.0 (97a52f5)
C            0.91861716477563       -0.62884679982219       -1.01077769827604
O            2.17128529656648       -0.17469169438157       -0.53306084356824
C            3.20697446416917       -0.24188312346817       -1.49547632474483
C            4.19839179793391       -1.21150630957424       -1.33191711191346
C            5.22145881595886       -1.32974125859614       -2.25311395200690
C            5.20527759401659       -0.53186395862618       -3.40807734704383
C            4.24392001892319        0.43650409810643       -3.58483631612796
C            3.24834335973231        0.62441650833131       -2.62441482601488
C            2.26592208253989        1.71079039334728       -2.77111641534822
C            1.79906231190856        2.40534830526843       -1.65461661897120
C            0.89063228528695        3.42769745687882       -1.78667978714282
C            0.42226790933963        3.78718973920062       -3.03588136163594
N           -0.54969306767000        4.87278309256609       -3.17447930702613
O           -0.95290104330268        5.44412233238424       -2.15045996470344
O           -0.93608484447501        5.18313046453133       -4.31098699920742
C            0.87382888429580        3.11010762820752       -4.15273114709160
C            1.78311805709376        2.08700103244892       -4.02632324087337
C            6.29179766165787       -0.99590051656752       -4.33677413038157
C            6.91788135896846       -2.15034263111280       -3.61370819922463
C            7.90122296494709       -3.03745115781761       -4.03069666522799
C            8.32087483768323       -4.06888416121906       -3.18693513657758
C            7.79805903108396       -4.17767166246442       -1.90490009614483
C            6.84003501486749       -3.25872586806628       -1.45008576926083
C            6.33915587918453       -2.28126418912940       -2.34241301452815
C            6.60742574165958       -3.51444597466031       -0.02032528357211
C            5.94855203658684       -2.77008946317864        0.94037328469464
C            5.89799651380577       -3.20450461925505        2.26740860724489
O            5.20342820370250       -2.50986310292663        3.25780828307327
C            4.46792273628798       -1.39142676299628        2.81516933633183
C            6.57525971364971       -4.40429594421959        2.63251969968876
C            6.54538728932363       -4.89855934676571        4.01999039098796
C            6.59017186698540       -6.26768836528664        4.29525564570928
C            6.57939342683269       -6.72899011912476        5.59014985415197
C            6.52356079717602       -5.84236109799641        6.64842678699746
N            6.50188149246702       -6.33737606635378        8.02575866243961
O            6.53334602346450       -7.56184802105890        8.21778976603716
O            6.45252308917834       -5.51489334492171        8.95239428357289
C            6.47565801025840       -4.48528188266097        6.39519684652054
C            6.48539291728057       -4.02022046998358        5.10224835087733
C            7.29816176985950       -5.10139554705750        1.66249727921717
C            7.31911008247210       -4.66155466125542        0.36027042753336
C            8.10950021314535       -5.16020546334623       -0.81636248789097
C            9.33134861342452       -4.86575171617344       -3.89622745933447
O            9.92161021028887       -5.84124106104515       -3.47905043763290
N            9.46801179210641       -4.26355473680107       -5.15392940005232
C           10.36505852046702       -4.75061092021181       -6.19296759155005
C            9.62871243294989       -5.02130386678666       -7.49541150994925
C           10.53506318682064       -5.47415579871032       -8.65618866212655
C           11.16721844377602       -6.84081737304331       -8.38329409861288
C            9.75888287721694       -5.48872587363397       -9.97581911882713
C            8.62865470279877       -3.15169042705844       -5.30162058015511
O            8.51698258383375       -2.43595949780544       -6.27584299146642
H            0.18265417113200       -0.52620001364896       -0.21251114588577
H            1.00261719521417       -1.67771661766810       -1.29807004531364
H            0.60853626301430       -0.03521543551616       -1.87104290426560
H            4.09089055863092       -1.91844301317698       -0.53425098233202
H            4.27755834555500        1.05999667403924       -4.45908715767141
H            2.15765753513156        2.12109278783683       -0.68025378441889
H            0.52927399007536        3.96003878541534       -0.92344500872346
H            0.49833356129492        3.39751730958023       -5.12004345207080
H            2.11410399680328        1.55373683852001       -4.90019137170265
H            7.02517360218728       -0.20350983331172       -4.51911372573949
H            5.88315480653014       -1.31465214852833       -5.30126159642256
H            5.54727392671212       -1.81335436976931        0.67757768027072
H            3.90996882160963       -0.99216443555461        3.66326841978236
H            3.76339655325905       -1.69282140573594        2.03885464832120
H            5.14808059304647       -0.62262512241249        2.44576406114345
H            6.61250169597584       -6.96887708884311        3.47959173535681
H            6.60937658186042       -7.78467680468302        5.79965511013305
H            6.42662860659995       -3.80335259519132        7.22685719160066
H            6.43899195547901       -2.96283985195246        4.90925273071565
H            7.87271970454418       -5.96764161607090        1.93420843892419
H            7.80304838289272       -6.17177380927788       -1.10190243322009
H            9.18238868076519       -5.17468415149576       -0.59870217911513
H           10.85200761547044       -5.65482094227430       -5.81709283654064
H           11.15043847350009       -4.00357194836232       -6.33917395268697
H            9.08998904810329       -4.11135101867612       -7.78433233835329
H            8.85168279663792       -5.77346740590936       -7.32611886117041
H           11.34821229976286       -4.73254378140453       -8.74687802062767
H           10.39730344382414       -7.59938160720120       -8.24519822159174
H           11.78632048996212       -6.83147877253300       -7.48658622479872
H           11.79652715623373       -7.15986797502720       -9.21488119568958
H            8.93661943183912       -6.20216935603250       -9.92968247947767
H           10.39765038207557       -5.77586905675850      -10.81154466420105
H            9.33377621096121       -4.51007841447429      -10.20103104511011
