81
 energy: -16.211810814897 gnorm: 0.000623583967 xtb: 6.5.0 (97a52f5)
C            1.09700774065671        0.31968972492750        1.17727966230031
O            2.35380884262535        0.00852210272668        0.60331438358534
C            3.40580637121327       -0.07506833491137        1.54763775095501
C            4.39855692600950        0.90820769878420        1.52032381314933
C            5.43649943413814        0.88432992242353        2.43287580391957
C            5.43568091930113       -0.08247984596472        3.45041214599200
C            4.47517091024132       -1.06748776779897        3.48966904878909
C            3.46539919897272       -1.10520217707828        2.52758239705798
C            2.48719768814237       -2.20836602062125        2.52299341532200
C            2.04906484251096       -2.76932788409073        1.32395741542280
C            1.14470259427258       -3.80748551238773        1.31628575235427
C            0.65864850291633       -4.31001230598512        2.50612510135790
C            1.08017889806193       -3.76982926845900        3.70426153894020
C            1.98475916162629       -2.73138123232030        3.71507039069975
C            6.53473332898188        0.23270557479477        4.42525662658291
C            7.15711178438377        1.48341533248353        3.87979193704105
C            8.16003845908382        2.28532800833483        4.40854790531864
C            8.58109349384423        3.42740838699662        3.72295612746401
C            8.03850814087106        3.73449956378161        2.48147172147042
C            7.05933316467792        2.90649436040758        1.91014848003785
C            6.55942389110496        1.81089030773751        2.65287516175357
C            6.81510226848532        3.37226106353096        0.53444422059242
C            6.13443343341783        2.78618447551079       -0.51691467239096
C            6.08714898874794        3.40488195739648       -1.76998929846405
O            5.37148442126366        2.87232887469920       -2.84388671749909
C            4.60296082374545        1.72579103005276       -2.54981991881315
C            6.79224693278572        4.62648568437021       -1.96708687862600
C            6.77996198849913        5.30715296399261       -3.27627316647349
C            6.80998147894128        6.70040567509574       -3.35928882295119
C            6.82022701871897        7.33747565610873       -4.58043413850091
C            6.80142265284924        6.60099541284505       -5.74734650113017
C            6.76954410215754        5.22282955572242       -5.68831697316140
C            6.75887168271040        4.58451429523176       -4.46837935309782
C            7.52955359291047        5.16799078305139       -0.91327217964994
C            7.54555203971028        4.54904616774245        0.31484814385304
C            8.35249113763689        4.86178445009176        1.54338667670984
C            9.62214998643089        4.09168098913570        4.52273824597973
O           10.21706813997842        5.11456618705639        4.24687598022428
N            9.77866665209827        3.29659475227150        5.66774716560072
C           10.69698225450860        3.60755497672483        6.75488117633369
C            9.96989492422805        3.80308769834731        8.07549578765179
C           10.89916160473599        4.05116754988467        9.27829015041118
C           11.65412378765844        5.37514785134675        9.14751704126910
C           10.11183840338577        4.00296054861199       10.58949074324171
C            8.91921314164810        2.18879011370697        5.66435678124816
O            8.81508838245557        1.33052585941830        6.51805086424941
H            0.35274571807402        0.38624953432781        0.38314687348754
H            1.16164282063065        1.27786469325676        1.69402186516373
H            0.80159956646737       -0.45551921312561        1.88400760666199
H            4.28153525021887        1.72929735982390        0.84229565803828
H            4.51700874588727       -1.81695064343383        4.25844300206584
H            2.42549517395587       -2.37048496299022        0.39780727953369
H            0.81482609197935       -4.22680828945170        0.37999187670481
H           -0.05037375490987       -5.12150364190414        2.49981669539493
H            0.69869426863359       -4.16025019641329        4.63345777139334
H            2.29940561333000       -2.30242336054716        4.65041619081909
H            7.26668756116580       -0.58024762279914        4.47618296435238
H            6.13771351622252        0.39960780492261        5.43214519793903
H            5.71145592286761        1.81169996808591       -0.38928463597022
H            4.03142529698370        1.45513378871141       -3.43843395733641
H            3.90921319123543        1.93881287669062       -1.73547838167639
H            5.25768399107118        0.89374675734965       -2.28824036067955
H            6.80884359668135        7.28095852491098       -2.45321850289728
H            6.84132680764646        8.41406553698304       -4.62499519498025
H            6.80858979320778        7.10102665888236       -6.70195216318028
H            6.75103530113941        4.64563292483938       -6.59823701244085
H            6.72764866204027        3.51018052544286       -4.42113536877526
H            8.11809097954787        6.05408791397540       -1.06487107580445
H            8.06124988025504        5.82508013467203        1.97539683743486
H            9.42351525711166        4.89737995909752        1.31760690192972
H           11.25876194014108        4.50386131207398        6.47723445385578
H           11.42207126609155        2.79203875593665        6.83111830949673
H            9.35174550919833        2.91870947831072        8.26736648782558
H            9.26245173468657        4.63361523243005        7.98508788171503
H           11.64123035829502        3.23339330228517        9.29440768714075
H           10.95645278115114        6.20993556935190        9.08349785166240
H           12.28134102723332        5.40014468641304        8.25644743342473
H           12.29848969798389        5.55189571128478       10.00948038068307
H            9.35865617714766        4.79026004706430       10.61414337252539
H           10.76377784366646        4.14395929106855       11.45230685447715
H            9.59593827962262        3.04990437674506       10.71209828390190
