75
 energy: -14.779940829056 gnorm: 0.000624854428 xtb: 6.5.0 (97a52f5)
C            1.98900416122785        0.78327282022551        0.94457313682517
O            2.24206355904149       -0.53879613835090        0.52172582282281
C            3.43863425374700       -1.09603556557167        0.98188379411323
C            4.45357043066881       -0.31949913738238        1.54852756613656
C            5.61400113106890       -0.90938756818533        2.01862562778975
C            5.73825601090639       -2.30591608214478        2.00763575488627
C            4.76407709921609       -3.08793569818213        1.43336404287617
C            3.61905053515681       -2.50811324153152        0.88657848156085
C            2.62234853596531       -3.37192713532863        0.27498011471681
C            1.44924916616754       -2.99894078980466       -0.31478190636517
C            0.68466988487214       -4.08095306658497       -0.82932395777476
C            1.26476914946538       -5.28576072845894       -0.63857691430600
S            2.77284740924883       -5.11249210579043        0.18522736942453
C            6.95668693092547       -2.69675874850575        2.79768512824549
C            7.50249432261962       -1.38957369324131        3.29175812069769
C            8.54794535940292       -1.12368305070517        4.16713246200828
C            8.86572946035139        0.19597715076584        4.50345696376745
C            8.18185634782650        1.25149359092952        3.91243818613684
C            7.16389419398703        0.99901183231038        2.97976847420119
C            6.76336558079101       -0.33525533485475        2.73399804703537
C            6.79626778907035        2.27452387645535        2.34633429928760
C            6.07982915498896        2.53772587298180        1.19256023132009
C            5.96134850775240        3.84373178797751        0.70930658384882
O            5.26420840566010        4.13147122967306       -0.47085784791932
C            5.00780711952416        3.02550368214697       -1.31113901261520
C            6.58319383782698        4.91014372223119        1.42742574746377
C            6.46744686117924        6.28653518285209        0.96901314509438
C            6.98500599528790        7.40480993941027        1.56520281323953
C            6.70862526016616        8.61897005732741        0.87194224605685
C            5.98066960327432        8.44812658441508       -0.25400083056354
S            5.62221851455289        6.77572216704988       -0.47067784791829
C            7.35621887204215        4.61287354204078        2.55226741578930
C            7.47625081896144        3.31570094496654        2.99322777939631
C            8.37404480387618        2.73291381589967        4.04983018613242
C            9.98948173223181        0.17576578134310        5.45145823772670
O           10.53529214845405        1.13327626626925        5.96284924236960
N           10.29713372723110       -1.17962509195817        5.63797033142542
C           11.34619797553750       -1.65954231113721        6.52675500166173
C           10.79546558172414       -2.55473627453223        7.62475561119509
C           11.87068132238704       -3.15300423212210        8.55107725413851
C           12.57467896737510       -2.07232136811696        9.37366873917129
C           11.26534464098630       -4.22172369581123        9.46402503068083
C            9.45599828821418       -2.02086149787404        4.89603193676482
O            9.46792974746369       -3.23535336663784        4.86442211151227
H            0.98257390436204        1.06133490694711        0.62921242145135
H            2.70054356376564        1.46823742167038        0.48511318929922
H            2.04894334395916        0.84323046957872        2.03223823323333
H            4.31070474968053        0.73287683675125        1.68591900713666
H            4.87717574618510       -4.15602345493966        1.42345800612810
H            1.13475468166712       -1.97059352722960       -0.38185796670604
H           -0.26691998665312       -3.94878011433420       -1.32368551098923
H            0.85984580005330       -6.23036917889841       -0.94914754364987
H            7.68841587430296       -3.21529044100657        2.16936482434887
H            6.69531365364612       -3.35373855964776        3.63385919450874
H            5.67281275259043        1.72075451239891        0.63291476126856
H            4.61162066571499        3.39423716103514       -2.25807794993951
H            4.26712270225008        2.37036474032731       -0.85426757878126
H            5.93335588850530        2.48092823404375       -1.50327699309249
H            7.55278951858668        7.37993597835662        2.48187151694410
H            7.05137851054837        9.58409781870419        1.21690626515406
H            5.66492833266420        9.22622549010835       -0.92283995177781
H            7.89139975251755        5.38860488114057        3.06656907027062
H            8.08576439959619        3.07522158558538        5.04928115024947
H            9.41994796791585        3.00976845370440        3.88069221531940
H           11.85715729295607       -0.78834657682071        6.94633810349723
H           12.08319180122455       -2.19752541535294        5.92327957911407
H           10.22168234523869       -3.36390746447672        7.15886576040644
H           10.06954008101957       -1.99592982487847        8.22406295872434
H           12.62452129912105       -3.64002641532407        7.90755715949689
H           11.85853264447412       -1.53609067692366        9.99596950954733
H           13.07527002368680       -1.33979858207257        8.74056916428002
H           13.32585765160518       -2.50404659882390       10.03598470968892
H           10.50385233100063       -3.78708588238852       10.11123749880525
H           12.02234274677411       -4.67524671649578       10.10468070834916
H           10.79268676265417       -5.01874298518399        8.88892376767612
