79
 energy: -15.924184474176 gnorm: 0.000928859835 xtb: 6.5.0 (97a52f5)
C            1.10959069737330       -1.03948064771913        0.48420849551174
O            2.34073311746457       -0.56705469726009       -0.03199142384470
C            3.40614776007437       -1.48955972171118        0.11070687233887
C            4.39312538029869       -1.21971023782339        1.06146709238014
C            5.44249030840710       -2.09885726815874        1.25279390767688
C            5.45887367369932       -3.31434831712802        0.55128134836718
C            4.50128071004068       -3.59758643918167       -0.39585221340204
C            3.47873526193447       -2.68481645892103       -0.65925838209254
C            2.49788013784126       -2.95272804653581       -1.72293912792373
C            1.95933085287460       -1.93565431202448       -2.49794434972060
C            1.05657010870206       -2.23692954611157       -3.48668857702576
N            0.63767260561482       -3.45749275313090       -3.77881222735900
C            1.15467760592913       -4.42424200274024       -3.03767257785993
C            2.06397235853181       -4.23653854064646       -2.02636760245765
C            6.57090064291146       -4.17189991474676        1.08577858119004
C            7.17819071460222       -3.34099152543460        2.17662634558326
C            8.18068873712386       -3.65407023745046        3.08508316865849
C            8.58330213087094       -2.71551390263433        4.03841977136874
C            8.02329885857908       -1.44433993056162        4.04525263723996
C            7.04457873645301       -1.09540979235238        3.10155215328450
C            6.56281438577507       -2.08008873155094        2.20680337173506
C            6.77887320797044        0.34651573439935        3.23324472586558
C            6.08907453774612        1.22285124317565        2.41575856377873
C            6.01837738149995        2.58392442539972        2.72593953341556
O            5.29267867281324        3.48915883683577        1.94989716076234
C            4.52935299422390        2.92146841043573        0.90814113293873
C            6.70911975804495        3.07218214051741        3.87339062207472
C            6.67457271490538        4.50007528424319        4.23263714191966
C            6.82741525438315        4.93499483921528        5.54371527053526
C            6.81443584895383        6.27935279606090        5.82279169255006
N            6.66527364138224        7.23790724648063        4.92310358582978
C            6.51460218022557        6.82000902851265        3.67716094215597
C            6.51135095368885        5.50374754218353        3.28846643139386
C            7.45678118938680        2.18208692404985        4.64694614558266
C            7.49555637938958        0.84442146430740        4.33047739725081
C            8.31618324393238       -0.26542073499631        4.92476114529965
C            9.62955221140720       -3.32311468992819        4.87444723122325
O           10.21611337366465       -2.80725291719051        5.80464502309848
N            9.80512828560471       -4.62003188590400        4.37118810720011
C           10.75021624067780       -5.58304418108985        4.91980071170628
C           10.06534750592434       -6.86851841231040        5.35450703542349
C           11.02680010611014       -7.95392637494028        5.87402626639425
C           11.71733559565846       -7.52643592980226        7.17034786735702
C           10.29140912591355       -9.28214543737628        6.06406690671856
C            8.95709471141597       -4.88601757380666        3.28724287671842
O            8.87427208904273       -5.91596522105880        2.64875045249265
H            0.34694334736140       -0.27505754516655        0.33235668275683
H            1.21752761432674       -1.23823339284969        1.55100677387696
H            0.81367852044539       -1.95388823919169       -0.03010634760761
H            4.26284850642348       -0.37079983103726        1.70163726723666
H            4.55733264890393       -4.52039622045035       -0.94301480507336
H            2.25239317656051       -0.91746956036056       -2.30895776923318
H            0.64273882245405       -1.43594114901634       -4.08128069173655
H            0.81953610216412       -5.42617116412162       -3.26178504701186
H            2.42589695209201       -5.07359047932788       -1.45551673533566
H            7.30821053221357       -4.39744493030748        0.30812724045931
H            6.18871931012462       -5.11886501298037        1.48132850274528
H            5.67834304891355        0.86569905718609        1.49457072548428
H            3.94422335497050        3.71296757510445        0.43815527432380
H            3.84828460599000        2.17030225223809        1.31051906028645
H            5.18948101692955        2.48257263097407        0.15897837406011
H            6.93470786081421        4.21790850817672        6.33863009269220
H            6.93141627707050        6.60406446422986        6.84641653816644
H            6.38614745857167        7.58905571838351        2.92956690350632
H            6.37829737362912        5.23803833431346        2.25495507338023
H            8.03968692433749        2.54100510424400        5.47481103116031
H            8.02264007201198       -0.46590720050293        5.96056650528886
H            9.38390556216619       -0.02233377241295        4.91151977352092
H           11.26671332833891       -5.10756051632990        5.75816541823447
H           11.50707793149538       -5.78725532591360        4.15714920611930
H            9.49281117627857       -7.26156121913535        4.50678887145687
H            9.32064173923394       -6.64391526515499        6.12447194835144
H           11.80435031699539       -8.10046424206698        5.10391395727290
H           10.98150784728879       -7.32820301984103        7.94895725028027
H           12.30961037488746       -6.62158776851240        7.03742034773585
H           12.38470744649107       -8.30538740906628        7.54055012585646
H            9.50341081514975       -9.18137016054273        6.80979262074363
H           10.96722941072282      -10.06789216759587        6.40310216502737
H            9.82586853551540       -9.61811758652254        5.13701243260443
