75
 energy: -14.762475525524 gnorm: 0.000532268008 xtb: 6.5.0 (97a52f5)
C            1.30826621685500        0.16995827182707        1.14197597756937
O            2.55232661307944       -0.04222398953084        0.50111336518519
C            3.60320256596955       -0.35474015755834        1.40006959047146
C            4.57987105134750        0.61080814195653        1.64672638849934
C            5.61390784268995        0.35312565044938        2.52973159054734
C            5.62089094788052       -0.85101756196920        3.24850604402649
C            4.67098033032959       -1.82098814888980        3.01382550722465
C            3.66989986333767       -1.60674212593550        2.06989201508025
C            2.69635036465067       -2.67236899242055        1.76519397862601
C            2.16797179954704       -2.91397949955887        0.44819955921872
C            1.30664975919947       -3.94785414566005        0.39137642273692
S            1.11137090052022       -4.66721565926337        1.95196590854733
C            2.20975526377899       -3.55484247556370        2.68215596461061
C            6.71357201900157       -0.80009323372664        4.27834407174409
C            7.32138292666694        0.55856200189306        4.09591196531854
C            8.30920364743537        1.20086343997625        4.83102771216912
C            8.71438787120524        2.49268692478820        4.48531409996924
C            8.17262664188802        3.11742793177485        3.36886071282755
C            7.20954824865416        2.46177787535347        2.58603259633215
C            6.72367802088120        1.19847897305951        2.99937495925298
C            6.96311353054267        3.28049813557836        1.38748181360180
C            6.29992592564365        2.99091649120604        0.20771203476023
C            6.25060156550695        3.92270390955355       -0.83140990551835
O            5.56168094848284        3.67376841119508       -2.02301946114030
C            4.81138042503642        2.47931394046235       -2.05186584133958
C            6.92972992994893        5.16583398085424       -0.68093355675178
C            6.91469699235352        6.17920119644370       -1.75429279121641
C            7.23803047700104        7.56996841908617       -1.55204919198518
C            7.18493684434567        8.30980169609061       -2.67701617842395
S            6.73672467054907        7.33601695103104       -4.03263993998921
C            6.61257094844237        5.92170904298243       -3.05579273736572
C            7.65262994148534        5.41013669222888        0.48495104112916
C            7.67373282289245        4.48179632597535        1.50129028755450
C            8.47048347360226        4.46204651815596        2.77538345405880
C            9.73920474184958        2.93002044559179        5.44507638845800
O           10.32042579003244        3.99686480549326        5.46207208462422
N            9.90206334010029        1.85725496832782        6.33360819683166
C           10.82499821829501        1.86670285994650        7.46058378996174
C           10.11283190628675        1.62314781174020        8.78177052627592
C           11.05253135469019        1.51753317985591        9.99732929109173
C           11.77022490150768        2.83947664860181       10.27602539074260
C           10.28573691272611        1.04432248574990       11.23470544652617
C            9.06308306976522        0.77870183783282        6.02005549524853
O            8.96922602482409       -0.28058501013499        6.60767708257880
H            0.55045266042090        0.37260176106175        0.38449365112096
H            1.38860641442001        1.02564672636749        1.81341145412097
H            1.02360446368026       -0.71520755330769        1.71096855937309
H            4.45638465326019        1.58192427467588        1.21171804411682
H            4.71293328778872       -2.74788486394551        3.55558980107791
H            2.44063324284970       -2.30710849758681       -0.40192665722555
H            0.80096789052864       -4.29067806159461       -0.49135408848457
H            2.46039602252451       -3.56044974803012        3.72454019248022
H            7.45548809199837       -1.58775075626027        4.10997467593450
H            6.31261872249129       -0.91739147287547        5.29064766793230
H            5.89660624983795        2.01051567441989        0.06276752980354
H            4.26189323658464        2.43766645816762       -2.99323309681238
H            4.09765087628359        2.46707914849939       -1.22695410997346
H            5.47796689847150        1.61766733438394       -1.99769582508884
H            7.48135692145721        7.98333845227848       -0.58561146568701
H            7.38633080910316        9.36237782867949       -2.74099221326969
H            6.32382062490316        4.96144786448826       -3.43114657741608
H            8.22613509002909        6.31217292715253        0.58905018238760
H            8.16065541691498        5.26662925079453        3.45060298162024
H            9.54157931693912        4.57416750839120        2.57680105690492
H           11.34486920052301        2.82906416207100        7.46347486774976
H           11.58369288364586        1.09852880975589        7.28376512455475
H            9.52362657362568        0.70311838163913        8.69485534755544
H            9.38030563814763        2.41793652529391        8.95582028458518
H           11.81638671636860        0.75682750245134        9.75676088757960
H           11.05004007008688        3.63223811462375       10.47818034372914
H           12.38234422629670        3.15661214507747        9.43154838334298
H           12.42336777353463        2.76048162693542       11.14579858835838
H            9.51035718355964        1.76161163320230       11.50365693693204
H           10.94553302596646        0.93440621961009       12.09595854630681
H            9.79951816693728        0.08349565871237       11.06130777669067
