35
 energy: -7.602056682582 gnorm: 0.000908566961 xtb: 6.5.0 (97a52f5)
C            1.05389576742731       -0.43019699601820        0.52926718898932
O            2.19980950600775       -0.01282230121097       -0.17706828398917
C            2.85091313384612        1.10337525839955        0.34659871324063
C            2.44260843974575        1.76035165979695        1.49948299553112
C            3.18577652480106        2.83077406645725        1.98554345805196
C            4.35501218111350        3.25045864103983        1.32280433553805
C            4.77560483491590        2.60709764018657        0.16568075971238
C            4.02939137472163        1.55512046573745       -0.34821197037789
C            4.47016256146047        0.88603560083476       -1.57198637105105
C            3.72121349309102        0.70187975793581       -2.68438761785999
C            2.43612219159149        1.23001230174025       -2.83961660637674
N            1.38130229933442        1.68813145006989       -3.00723160720949
C            4.27555365716557        0.02500355162025       -3.77262366062441
N            4.74524042636184       -0.53673151657609       -4.67527362627164
C            4.89342210195650        4.36418035922491        2.06620076933346
C            6.02039541099372        5.16348288306413        1.87273199965187
C            6.27844081334389        6.16661118987435        2.77468519565843
C            5.43577194108846        6.38488747392498        3.86745321523069
C            4.32393132488165        5.60594200798104        4.07357528521916
C            4.04245732105730        4.58501486062565        3.16513898057101
N            2.99683664783457        3.64826570016740        3.10451066217664
C            1.91608658038396        3.50590233605345        4.07309473354436
H            0.63020395785967       -1.29205125023720        0.01125738731004
H            0.31507639642163        0.37262241319389        0.54444780966214
H            1.33007033648884       -0.72466764930778        1.54303956807272
H            1.56631547916180        1.45044416546595        2.03356158166295
H            5.66488550370830        2.93609138560733       -0.33928028947084
H            5.48786662173708        0.52847645464734       -1.59746588278824
H            6.66560796021855        4.98801417574205        1.03019507603987
H            7.14318320845487        6.79495902447793        2.63809886788198
H            5.66386277345739        7.17857666058100        4.55994896076410
H            3.67745853275382        5.77257122658954        4.91616934446048
H            1.85982550332599        4.38273917348680        4.71337059099390
H            2.08974582979859        2.62776494328124        4.69148328747455
H            0.96618936349152        3.39489288554790        3.55470514924794
