45
 energy: -8.974231649624 gnorm: 0.000965524653 xtb: 6.5.0 (97a52f5)
C            2.20795540997168        0.21646952354029        0.66742023704253
O            3.08396199875155       -0.73100368120860        0.11578580108074
C            3.55821510340085       -0.43552247476573       -1.15947587729350
C            4.41490406957566       -1.35615386663640       -1.74973191761137
C            4.95222016303280       -1.17035369407367       -3.01998538498435
C            4.63280697831927        0.01540630066117       -3.70643833763659
C            3.76908681674871        0.93709264714821       -3.12470362617012
C            3.22819559186353        0.73439960976072       -1.88203666571507
F            2.38803052480195        1.65713458616414       -1.36312046596859
C            5.20857265014344        0.29310669500383       -5.01392729047666
O            4.90668048996712        1.30154443939184       -5.63938131226806
C            6.17220824011341       -0.66073927737822       -5.54097091539968
C            6.81267332023925       -0.40251223342418       -6.74812578507633
C            7.74558386307270       -1.26169908662699       -7.26764206637544
F            8.34096750678497       -0.96607707575692       -8.44437300229003
C            8.07706843446345       -2.44264169250912       -6.56323700004594
O            9.01695552621534       -3.37570612749245       -6.99157959006098
C            9.64868072895885       -3.07933092180865       -8.20889265870138
C            7.42924323783181       -2.69693623148669       -5.36130250627778
C            6.46929101043054       -1.83899500440356       -4.83358465303034
N            5.79649547106570       -2.12254215028511       -3.62821882578298
C            5.93991920804902       -3.46668202004202       -3.03459499345979
C            7.16972649416575       -3.60715784540189       -2.19528796263539
C            7.79364338128130       -2.49188677845402       -1.66219253884979
C            8.92291211323684       -2.61908324915205       -0.88134922283409
C            9.44174214640344       -3.86976882722747       -0.62244188582083
C            8.82833243099633       -4.98942633917084       -1.14324542832463
C            7.69828417114429       -4.85893174371992       -1.92310433800437
H            1.90160576038546       -0.12272379201674        1.65827466250210
H            1.33178419777494        0.31497682533335        0.02385585986895
H            2.72048158609852        1.17693493359894        0.74839064731232
H            4.67955720110949       -2.21869370566231       -1.16961544255939
H            3.52331864786986        1.83518939286541       -3.66171816650467
H            6.57344826823690        0.49696066518656       -7.28555193366495
H           10.35597645851979       -3.87688317489087       -8.44153167066063
H           10.17970453042602       -2.13001475157038       -8.11750321017824
H            8.89704629764733       -3.01142227442277       -8.99760304818024
H            7.71481106478715       -3.58098307591412       -4.82458420139538
H            5.94733444870262       -4.19991792016356       -3.84502748836469
H            5.05083497101601       -3.70586978748379       -2.44805177436642
H            7.38701467061863       -1.51828933459269       -1.87209210945430
H            9.39930114866086       -1.74175921915268       -0.47518865410690
H           10.32481580864336       -3.97219751958953       -0.01311061492372
H            9.23190894600056       -5.96807915020495       -0.94076358785474
H            7.21672891244621       -5.73308159196655       -2.32733105448883
