54
 energy: -11.066714203052 gnorm: 0.000730972655 xtb: 6.5.0 (97a52f5)
C            1.78931950373904       -1.26325189820517       -0.45899516554324
O            3.09866394147240       -0.81530998772684       -0.74294305274565
C            3.16235132083258        0.55746575163908       -1.05190763259979
C            3.68408843744592        0.97767363068038       -2.26078556841222
C            3.68956063477002        2.32652310002778       -2.62895290990298
C            3.14937404536707        3.27464471121663       -1.73139154515266
C            2.64735791910537        2.85752122992942       -0.49315423540346
C            2.66664577577214        1.53029452254988       -0.12538041326980
O            2.22468844186780        1.13351463949489        1.15287925326036
C            3.21890273930221        0.46713000899968        1.90188679005428
C            3.15199898084332        4.63788910237709       -2.14078222930750
C            2.69798431077739        5.80414454953539       -1.50426088707196
C            2.07471810485771        6.29045845330855       -0.29233820000210
O            1.72858147912534        5.64032225596656        0.68394126229769
N            1.95181154201197        7.69009493490560       -0.48943105531116
C            1.41105871820774        8.63347177962740        0.37206670344950
C            1.36734036445232        9.93108169340768        0.00862736822761
C            1.86962333120328       10.36695307626403       -1.26315042857748
C            1.81900167803003       11.70724379138428       -1.65645372533695
C            2.29467820947464       12.13636619678072       -2.88390569353153
O            2.25418911327171       13.47111717837259       -3.28816874791832
C            1.68201869852032       14.37205722818077       -2.36671052187999
C            2.85804333181579       11.16940485935460       -3.78408299625833
O            3.37189202031354       11.45680362815997       -5.05546230634646
C            3.22333559857565       12.78108170863488       -5.49407377150942
C            2.91111827240295        9.84832692432301       -3.39205281936154
C            2.42752148874226        9.42481245309996       -2.15086217935400
C            2.45882764254343        8.06541533920636       -1.73001925513375
C            2.92555106657750        6.90199487227832       -2.36271225823353
C            3.54825682756229        6.41282164550465       -3.57422420733861
O            3.89824037574463        7.06271651810918       -4.54919351550691
N            3.66377512100458        5.01201634477993       -3.37919655940060
C            4.19064030719235        4.06539667768852       -4.24582335369683
C            4.20912522439149        2.76427151976806       -3.89285622101103
H            1.83220180129398       -2.31563495358871       -0.17550597400871
H            1.17318396007750       -1.15108513920173       -1.35229029974178
H            1.36251729483505       -0.68026873164457        0.35783977239255
H            4.06653005463198        0.23761030885260       -2.93865581108356
H            2.25980637658356        3.59048663224409        0.19081011935441
H            2.77847654163152        0.12006679461276        2.83759331983119
H            4.03049023918986        1.16403728436339        2.11606111488877
H            3.60437397827230       -0.38433648878733        1.33928905897449
H            1.03610662116698        8.29302756318183        1.32124134810690
H            0.94716305175812       10.66412727955327        0.67474801912585
H            1.39306927887286       12.41472444629908       -0.97153923923388
H            0.64377399102519       14.09683149639201       -2.17568019919425
H            1.70844503317077       15.37095790367532       -2.80429276555602
H            2.26217183487948       14.37474657154504       -1.44288573128188
H            3.60152058662029       12.86114097276570       -6.51444744253150
H            3.79108424816229       13.44120007080977       -4.83594677716249
H            2.16615417285970       13.05132122539074       -5.46962654493834
H            3.33219045673654        9.12136215706397       -4.06292843986265
H            4.57388442205718        4.40603093149381       -5.19163077090527
H            4.61503148930032        2.02858523498891       -4.56489267980242
