71
 energy: -9.988042465191 gnorm: 0.125211200383 xtb: 6.5.0 (97a52f5)
C            1.59810117932186        1.33992300040545        0.59216870022689
O            2.42982389762381        0.32843630063448        0.24527623804361
C            2.82499582459524        0.38438404839595       -1.09464583243685
C            2.43187788675709        1.39260589755602       -1.91596922049557
C            2.80719261825741        1.49460043176422       -3.21361789012689
C            3.64220429040289        0.50803564454951       -3.74763712432065
C            4.04665823624534       -0.50738024163594       -2.93713485571534
C            3.67500290618630       -0.62728031904243       -1.63937515386399
O            4.16225945173846       -1.73010606024547       -0.91135047898427
C            3.51756201780466       -1.94698285833297        0.25481368599120
C            4.07475062184185        0.59306772276612       -5.15118097727219
C            4.79027758661168       -0.38069840743481       -5.67102879786075
C            5.31638092915564       -0.43286310280227       -6.98849688602231
C            4.41226807804149       -0.92267686486227       -8.06041256641392
C            3.14822965180166       -0.44225679297882       -8.19056842760910
C            2.36844179571466       -0.83308273320687       -9.17893433070062
C            2.80443140672212       -1.72959266094650      -10.11023097187264
C            1.97018744437406       -2.12259745726815      -11.19712415931710
C            4.07118953086154       -2.21004765344720       -9.97545342516002
C            4.84648643331996       -1.82650588725251       -8.98029672547712
C            6.13826073843077        0.75554634106838       -7.32918292410601
C            5.37143838304526        1.97482892282651       -7.67141238269777
C            5.81043020863678        2.74765557227797       -8.74292388063324
N            6.32397848430440        3.37977124063677       -9.58887308264464
C            4.23022060283720        2.35951083916320       -7.02982879437653
C            3.57940947821654        3.50889419039087       -7.51095712742371
N            2.99174431503056        4.43146334868956       -7.87680476523441
N            3.63952148317262        1.73066446784106       -5.90261071561149
C            2.40542781596784        2.33545674496071       -5.43259590217553
C            2.35115278231840        2.57916922013076       -4.03149663811830
C            7.33821313406026        0.51339534700003       -8.08107552372804
C            8.09069305680624       -0.56549622816612       -8.12701923853142
C            7.93975814764060       -1.68623039206669       -7.44712503283021
C            8.60624256687065       -2.88497349531949       -7.44542676673073
C            8.57160894761261       -0.24810788513154       -1.75181957718825
C            7.91495597911980        0.84838812345154       -2.02996106008711
C            8.37550369952613        1.93677518162850       -2.62370440703743
C            9.66150793624538        2.16755562748403       -3.05565176007069
C           10.17391263116918        3.09264669146364       -3.89828978790322
C            9.50660338427652        4.07019564314821       -4.61520628467122
C            8.18041840745354        4.30592427052194       -4.67070651986904
C            6.95979312705408        3.83166507307210       -4.26679263321452
H           -1.03748816006351       -1.92460644303762        3.04732260684117
H           -0.68775360124236       -2.25979843251071       -2.18544082979019
H            2.15637500779970        2.12907654491160        1.02114863280041
H            0.38924200362712        4.32134277704606       -2.45042148226282
H            6.19944353938246       -2.02550403302049       -2.01263982851373
H            5.13099484127838       -3.78583855936781       -0.27194716555911
H            2.64519318152682       -3.87497274807170        1.71337068189825
H            3.79298234070896       -1.19962461925392        0.95119156090932
H            5.11657298141577       -3.09107713638350       -5.51350257397230
H            7.03262706179178        1.45455367018318       -4.93820812509870
H            0.47624003677920       -1.64561103556809       -7.73190467879105
H           -1.25671478483323       -0.41645014860282      -10.32291298595045
H           -1.02962431086544       -2.05313063984336      -13.03411730360188
H            2.30466278674630       -5.89111082529417      -13.94632552119290
H            2.18998742787213       -1.60346577358085      -12.08520462531790
H            7.59749806070998       -2.66272695300591      -12.31020590352949
H            8.51101875360810       -0.38630041105959      -10.60500973444174
H            2.49515801804421        5.35521025955746       -5.78702429531396
H            5.14301753849436        2.58867887650754       -3.65034429715972
H            1.55461911958094        1.77879608132893       -5.78425592697382
H            3.64109401275937        6.86852711981846       -1.95150954524927
H            6.00905122174265       -3.83260675338819       -8.40550005055339
H            7.98812934068428       -5.31212240197825       -7.20762892347648
H           10.38154203290959       -4.82135155531833       -3.58868695433324
H            9.59254647092204       -0.37908401710523       -1.96106790295759
H           13.61681918282475        2.03028941648363       -1.33388448620316
H           11.24575837662142        3.05792275473769       -4.01514053478955
H           10.11532588616427        4.73154799037883       -5.21202246034801
H            6.77193453539803        3.79125614180313       -6.68116334933697
