68
 energy: -14.124331246474 gnorm: 0.000558994522 xtb: 6.5.0 (97a52f5)
C            0.05499116263832        1.33679025297615       -0.12864723834068
O            1.12917504602848        0.42804323313301       -0.04298118413701
C            1.75295698741587        0.11636697140794       -1.25513349559574
C            1.38599648063728        0.69243443036349       -2.46724550760516
C            2.01155175983243        0.36146466635711       -3.65694935264965
C            3.03417422336534       -0.57919658008741       -3.65664906692459
C            3.41713118054229       -1.16160420323480       -2.45185331750501
C            2.81089703426779       -0.83658533730725       -1.25119963252034
O            3.30502404130976       -1.49523986803298       -0.11092782748686
C            2.84282467425627       -1.01058085103371        1.12176037172298
C            3.68519659030811       -0.90577966719976       -4.93487491386067
C            4.01591995182142       -2.17677080814694       -5.19905404568611
C            4.70558248686479       -2.60308211939130       -6.43893702819794
C            4.76230849472629       -4.11641961804233       -6.53199543598625
C            5.37693267250231       -4.86683761535550       -5.53884151990557
C            5.46541065533404       -6.23680758813367       -5.64221746565392
C            4.93747507120973       -6.88039129382650       -6.74747958317605
Cl           5.06611153930638       -8.59697494967319       -6.89243150694566
C            4.31603466251925       -6.14567076648760       -7.74188013863275
C            4.22947009813208       -4.77551571261026       -7.63284906187749
C            6.11907615514652       -1.93464667289124       -6.55898116369202
C            6.02970017310948       -0.46753242545496       -6.97132958287566
C            7.13340089297944        0.01324256334203       -7.66650467993395
N            8.07258160753351        0.39612961015809       -8.23874997651288
C            5.00210542846355        0.39269846109571       -6.69918143295875
C            5.09896492961537        1.68205314935171       -7.24646951666060
N            5.14301526105925        2.75746668940115       -7.68458248010988
N            3.86213608674145        0.14845581134393       -5.88249973545777
C            2.86181346759100        1.25145196705537       -5.84177030063740
C            1.63088595027480        0.98084979441559       -4.96569172197910
C            6.96441970834570       -2.73515637027936       -7.56150780601466
C            6.74975537324637       -2.98541897324073       -8.90427022084875
C            7.62996827290593       -3.80476326530235       -9.58020154108073
Br           7.33385583991533       -4.16968346093291      -11.40594432556444
C            8.71568891821824       -4.36727284687768       -8.93503037850524
C            8.94272341798093       -4.12135445347480       -7.59321410563836
C            8.05884269780582       -3.30206777793811       -6.90627968191933
C            8.04584860029726       -2.88766061558091       -5.49867273847186
C            8.92914402327176       -3.17471190598373       -4.46739771665691
C            8.69213756975322       -2.63479200946205       -3.21605691757101
C            7.60083953172939       -1.81448989318644       -2.99995786361076
Br           7.27327574428898       -1.08336847806583       -1.29447110411358
C            6.72485187553349       -1.52119059008095       -4.02203972704908
C            6.93590409129159       -2.07253781848348       -5.27160775661519
H           -0.36197888158451        1.46951965324026        0.87051292805298
H           -0.71880298626076        0.93526727938738       -0.78434986226620
H            0.41213602385883        2.30047678372889       -0.49415857962288
H            0.59545405367429        1.41754163149064       -2.49617291352370
H            4.22340602690547       -1.87015884829721       -2.43276721401476
H            3.37196215158899       -1.52421722142112        1.92568373090511
H            1.77214811765463       -1.20488727787951        1.20284348111279
H            3.03059564455964        0.06274374930142        1.18194999943497
H            3.79617564448519       -2.93110479081898       -4.46526060288807
H            4.11377173098235       -2.24198752170456       -7.29234737832493
H            5.80340834134758       -4.36335059591682       -4.68914836145808
H            5.94877070319308       -6.81983212846919       -4.87682024043548
H            3.90994961243720       -6.65962609915058       -8.59648476994957
H            3.75155259163984       -4.20449136413552       -8.40992798617185
H            2.56189352284210        1.46288786288450       -6.87379172071725
H            3.37939078831189        2.14534435543595       -5.48042573802339
H            0.94096192401866        0.30875235054181       -5.48849144560239
H            1.07306179316061        1.90804361034091       -4.78660555914583
H            5.90659954610540       -2.55355315951589       -9.41469732196160
H            9.38236839517925       -5.00359813441762       -9.49390144315750
H            9.78249555826818       -4.55704924138347       -7.08176702729353
H            9.78053580729670       -3.80636637377816       -4.64803130528627
H            9.35870617164050       -2.84340450750349       -2.39539070407150
H            5.88886728859850       -0.86912307658502       -3.84621054013064
