75
 energy: -16.136400945338 gnorm: 0.000308542158 xtb: 6.5.0 (97a52f5)
C            2.68298579773878        0.02818363250253       -0.81163409199915
C            3.49731446823469       -0.20863654143660        0.18974500863244
Si           3.61725546732013        0.80366346472900        1.74594390423250
C            2.67018125266132        2.39252700336942        1.40055427371006
C            3.00753260536193        3.08674544243250        0.22867268546387
C            4.14860383221998        2.76103394854673       -0.56286474201209
C            4.45192327401511        3.44929094961586       -1.69129126573656
C            3.64095812138398        4.51743880517760       -2.11632176488444
C            2.55129548531429        4.87886923617537       -1.39442491140375
C            2.20461009108052        4.18899697907566       -0.19917812989439
C            1.10995430412342        4.57510585869723        0.56516730317910
C            0.80125708151912        3.93167934997556        1.75841722127507
C           -0.29575051725538        4.35744228738213        2.55867494703951
C           -0.56673723112275        3.75859065468652        3.74451031357376
C            0.24514798376140        2.70813803258648        4.20858257644361
C            1.29279770940457        2.26800507805496        3.46851488439278
C            1.60666490050274        2.83545384729041        2.20062026857856
C            2.94283420760877       -0.24675574231722        3.15326271300616
C            3.63320174688527       -0.32287625836893        4.37232139471801
C            4.58683669473790        0.65147856313956        4.78440279165635
C            5.25914120526194        0.53522093128598        5.95635858810067
C            5.02167511622586       -0.55689979036914        6.81108068733073
C            4.09930127935588       -1.49568816638761        6.48304998020844
C            3.36222199981770       -1.40261431612260        5.26946400362384
C            2.37732595501477       -2.33090178972119        4.94771325323838
C            1.61554126356118       -2.20175049838485        3.79102524118503
C            0.56192945373411       -3.10922972545457        3.48919611077051
C           -0.21223661474148       -2.93508625488535        2.38884690876745
C            0.00597575904038       -1.84092243323472        1.53058909744794
C            1.01063043813661       -0.96323988475255        1.77606191229484
C            1.88044940414346       -1.12263150979702        2.89202424106012
C            5.45889328596248        1.07990792961022        2.00285646204511
C            6.29369213309042       -0.03951839523451        1.87191022268024
C            5.80838346897990       -1.37856199551143        1.94375318562348
C            6.63502852014997       -2.44137019445950        1.78251100146918
C            8.00993284635548       -2.24868329716173        1.55203267577496
C            8.53017885392280       -0.99646653324980        1.51470804629663
C            7.69956607453036        0.14521745639199        1.69227389429316
C            8.22814015925420        1.43151466628165        1.71140435852246
C            7.42106522256445        2.53993058050063        1.94681496709928
C            7.97170222825034        3.84916937984617        2.03237103109676
C            7.18683281359802        4.91689286388600        2.32061309099743
C            5.80949339413286        4.74453732524019        2.54960136773368
C            5.24437450882014        3.51500393851281        2.46091236329902
C            6.01341619909273        2.36331728046663        2.12518264021239
H            2.66381182730160       -0.59289619844288       -1.68673873435643
H            2.01038834131164        0.86300276059723       -0.79459228893410
H            4.17523375598547       -1.03792688154153        0.15340129773865
H            4.78847465198887        1.95964264962867       -0.24177201972729
H            5.32234160211862        3.18175784570405       -2.26793440255599
H            3.89484793174550        5.05250409214297       -3.01685852421062
H            1.93601974476893        5.70228802080735       -1.71444042029526
H            0.50597382545757        5.40326842275371        0.24071568458324
H           -0.90711611638883        5.17171080591921        2.20907446122745
H           -1.39899119250339        4.09271936951551        4.34240526044476
H            0.03251127900135        2.25555512323238        5.16352994530458
H            1.91860332774091        1.49096787912290        3.85859541084427
H            4.75877042784515        1.50493630953806        4.15597362324742
H            5.97986276485519        1.28487630985267        6.24005891839723
H            5.56958962974606       -0.63707648156709        7.73579260803269
H            3.90639078204283       -2.32265642220935        7.14468014436229
H            2.17566587313992       -3.14163646885011        5.62427498796561
H            0.38158637541503       -3.93464495998102        4.15630227974709
H           -1.00991778267833       -3.62753706722896        2.17458955167009
H           -0.63725282601279       -1.69871539968188        0.67746893816963
H            1.13972873245279       -0.10281562159618        1.14572137423401
H            4.77059427992205       -1.54059657958827        2.17181972393791
H            6.24203715832612       -3.44336126999822        1.84089995942444
H            8.65178753778002       -3.10460713080879        1.42100785853912
H            9.58518255245776       -0.85054572372445        1.35799193134508
H            9.28618197720122        1.56840654159787        1.57900790856720
H            9.02846926591771        3.97853399901673        1.87299254458810
H            7.61774938459518        5.90261388447823        2.38690668692910
H            5.20205187596016        5.59950851739603        2.79837544922596
H            4.19632076932726        3.40035151520794        2.66354912995400
