68
 energy: -14.123778751386 gnorm: 0.000779362103 xtb: 6.5.0 (97a52f5)
C            1.35649487394087        1.13535412599726       -0.92922956462811
O            2.09459826065423        0.14081273660627       -0.25545333248403
C            2.83446927696883       -0.71786163916638       -1.07398156090218
C            2.92494884361457       -0.56519578070370       -2.45354671772398
C            3.64583096803029       -1.44499453042803       -3.24251813621437
C            4.29714399273549       -2.52234972829351       -2.65283404205636
C            4.22694681445994       -2.68326117401092       -1.27191750281069
C            3.52192282852535       -1.80636658560984       -0.46621544397719
O            3.53670768804314       -2.07463118802733        0.91415453390197
C            3.13843509567425       -1.01317555264852        1.74160193182800
C            5.04438296735474       -3.44361143509935       -3.52329472401457
C            4.97331787258142       -4.76371580936114       -3.30853546840274
C            5.67255408892152       -5.76150406469586       -4.15205858459048
C            5.20845970196284       -7.16867247574012       -3.82410212394894
C            4.67956195614580       -7.98503823488679       -4.81616697642328
C            4.29384282536640       -9.27646572323729       -4.53283174595425
C            4.43005662712522       -9.77238420350781       -3.24825350785044
Cl           3.95995589842671      -11.39592561865919       -2.89331159894189
C            4.94993986792374       -8.96801129354668       -2.24981233047373
C            5.33483342487273       -7.67812842219314       -2.53882496203362
C            7.22815349563136       -5.59848640983383       -4.05633721987163
C            7.73938134713223       -4.37636204101727       -4.81699996881134
C            9.06384128580416       -4.46067398080221       -5.23101094995932
N           10.17707681012648       -4.54816897747711       -5.56080365584985
C            7.03785661494983       -3.23729305455156       -5.10068536391470
C            7.68519410393081       -2.27744260555923       -5.89478402800328
N            8.18570857304165       -1.46155964981222       -6.55369108168923
N            5.73494795200387       -2.89016535859365       -4.64464748461129
C            5.16289134379021       -1.64588218572983       -5.22833697914138
C            3.75682594743837       -1.28700237761026       -4.72775540877567
C            7.89407302419791       -6.87997261629325       -4.57951810878619
C            7.83488766683307       -7.46132532673789       -5.82959613606712
C            8.46903452009293       -8.67229009900627       -6.04928321334274
Cl           8.37527882744460       -9.43601400929140       -7.62671929968423
C            9.16470360604820       -9.28427311336665       -5.01611370845149
C            9.23564456635768       -8.71007971776749       -3.76272490332895
C            8.59311513323108       -7.50112307861097       -3.54460554561308
C            8.48825387900197       -6.68117599026559       -2.33142026577285
C            9.02752261353527       -6.86597991035394       -1.06711341786309
C            8.78239641417584       -5.91871212118085       -0.09266612198106
C            8.02007098077547       -4.79125732389675       -0.36305964239986
Cl           7.70551136947952       -3.59782034825077        0.88347091502269
C            7.49180502405857       -4.60765367772003       -1.62773290442762
C            7.71131357559933       -5.55552567284034       -2.60503974983006
H            0.78844769740153        1.70029756065173       -0.18902649439627
H            0.66132786989128        0.66998891610831       -1.62954077833746
H            2.03612951512741        1.81392091615040       -1.44712414347506
H            2.42468041140232        0.25360744339777       -2.93422091696446
H            4.75163999701608       -3.49188735259487       -0.79900052534585
H            3.36283536121775       -1.26934444535560        2.77811060918074
H            2.06480513587358       -0.85547714671170        1.62483196507188
H            3.67987765255078       -0.10873635500110        1.45836971358434
H            4.38364439210472       -5.12478078116588       -2.48543623983376
H            5.40119566429382       -5.56098174324486       -5.19859785443451
H            4.57975549575600       -7.60266750653048       -5.81728073102313
H            3.88937372470314       -9.91394511490287       -5.30069240771653
H            5.05379095663616       -9.36757458827282       -1.25535757539783
H            5.75720670773784       -7.05845925780311       -1.76735732602930
H            5.16954628610171       -1.75928449087543       -6.31782139604691
H            5.85444741436966       -0.83002489384546       -4.99618218061335
H            3.01319317030131       -1.93198322400033       -5.20974575288687
H            3.49664241985585       -0.25967001444732       -5.01059520992220
H            7.29595810364599       -6.98349139794336       -6.62754865452265
H            9.65028198404508      -10.22574537392184       -5.20965108608369
H            9.77194834857022       -9.18715035195743       -2.96168861813705
H            9.62541847439394       -7.73545054815910       -0.85917279264848
H            9.18649168420439       -6.04145145063032        0.89784671239992
H            6.91393898479044       -3.72883255513792       -1.84360221557712
