68
 energy: -8.332260250221 gnorm: 0.033190746647 xtb: 6.5.0 (97a52f5)
C            1.12339417932190        0.10805910533755        0.84963963945054
O            2.23224445823041        0.33828433905297        0.01345408525806
C            2.89813767959347        1.53653647591827        0.28049315917230
C            2.50736388478954        2.37808415438545        1.27498146710078
C            3.13600169377090        3.50395941796608        1.53997082858529
C            4.22196524186827        3.89610873367839        0.82387774571231
C            4.64483892319643        3.08182487652115       -0.18425534033000
C            4.03400680475153        1.91157277603820       -0.49673050747509
O            4.57078193478540        1.15603219826948       -1.55623991168872
C            3.88231203083143        0.00207016101690       -1.86082319091548
C            4.90147098650918        5.10939285348204        1.13873489970977
C            5.88508034246722        5.63348483097585        0.50165172736455
C            6.54517296599988        6.80710819907768        0.83835677814388
C            7.41633519562287        7.34411980342510       -0.17631833460189
C            7.07340854647298        8.46048365059873       -0.87848096716297
C            6.01448316279493        9.24105728250331       -0.78421741860363
C            4.99820535249799        9.14951077998932        0.05375471167075
C            3.94336557306842       10.02422802627903        0.05949628013363
C            8.29657687277582       12.15327782455357        6.40521270254360
C            8.55722512296536        6.73767102657936       -0.43661601619954
C           11.91805057978546        5.42076563024155       -4.02444638526913
C           12.80677057479507        6.04284980556351       -3.22728132427562
N           12.89486397454936        7.25731123739215       -2.79915390642930
C            0.82712063284723        6.21032771556335       -0.12320228997276
C            1.49701229510781       10.94249107712746        4.43525687431235
N            1.48594967519131       10.91599186286003        5.66937042111756
N            6.56374197260447        4.40266913106956        6.90116680002482
C            2.69979521047983        3.13091926946332        6.57341365982135
C            3.53708476089044        4.07739049440938        6.94173421422197
C           12.18452159075397        3.02001445120540        0.58692170933533
C            8.09483167856293       -1.22205196143806        0.27428703965157
C            8.77179298080361       -0.53555498025953        1.09036677827756
Br           9.65053879876660       -1.26879034010132        2.42027955795473
C           12.51808773240640        2.25304705386133        7.37498856852514
C           11.82155042590965        6.64192983670945        4.53277834180306
C           11.33979412100487        7.19407132900372        3.48344311235436
C           11.38745840087720        8.47444728521803        3.15279744920979
C           11.96237539016060        9.50101715729114        3.86804722267693
C           12.09276663120858       10.78117428301123        3.54438348487616
C           11.50505966442065       11.53868932589144        2.61011501296341
Br          10.08606529920076       11.00807497740610        1.64132054062603
C            9.59105685989511       12.01919972227432        0.23573716749281
C            9.07553411301887        9.64140433005421        2.08750233040112
H           -0.38424067045909       -2.69724095890242       -2.71434585338753
H            0.38932474003164        0.90279293304276        0.70661501319412
H            0.67890729803401       -0.85159456754327        0.58154862338918
H            1.45129468107968        0.07811757246126        1.89001704114939
H            6.26938511987863        2.09863232613916       -2.63823353810178
H            5.54916998865278       -0.69212933166590       -3.59343072542280
H            2.87179377976850        0.24932193033334       -2.12820605880234
H            3.88668478736141       -0.64923863041486       -1.00759403816201
H            5.69664391432068        6.42053319065163       -3.08362384901522
H            8.37370440414256        3.80583708951563        6.25878113849153
H            1.38112384877029        5.84517894513401       -1.87325699111208
H           -0.81688937478697        7.20415051105458       -0.09440201930812
H            2.25852095332129       14.68172027657904        1.78961279975292
H            8.57108336411224       13.09932694829155        6.14299338430141
H            9.37862624468676        7.91026462667344        6.66032103760063
H            3.45571035532780        4.22081229599531        7.99536434848338
H            4.53723382562928        3.77736050435361        6.68818067516117
H            1.56622193888432        6.24291533658559        1.58841749927367
H            1.59811575748975        2.06257240101907        5.87460439261290
H            7.56134505352664        3.83741942935470        0.95537388802333
H           14.17620756197131        0.25626227493092        3.71372683897259
H           16.78334796320762        3.26557159760157        6.25160699993969
H           13.87219297177356        6.26172771072434        8.95496216689670
H           11.89318392331698       12.51913777349309        2.40997945085241
H            8.26838325086971        9.35655260820038        1.48883905719237
