68
 energy: -8.420386541255 gnorm: 0.163166535554 xtb: 6.5.0 (97a52f5)
C            1.07890278165891        0.24877924456646        1.08516856798792
O            2.28346538525966        0.64129561401946        0.47085635353339
C            3.26050624095217        1.06936938060735        1.37262035990522
C            3.04193781533560        1.11357663492499        2.71451418600648
C            3.95898008036581        1.51391470204626        3.57047928003851
C            5.19166211785961        1.91061204329671        3.15770489394024
C            5.45082763189490        1.88186180846914        1.81968534726182
C            4.54115068335123        1.47962814033742        0.89678734146590
O            4.93227437677543        1.49461837113263       -0.45558256969715
C            3.97001954902072        1.08528772982971       -1.35229322183712
C            6.19092968130291        2.33933885878059        4.08226353737269
C            6.08503045249255        2.41443721227693        5.36054378267323
C            7.08225209834079        2.82218507184542        6.24102779459524
C            6.89700754513249        4.06560710901415        6.84094804120824
C            6.49546126452187        4.29315721605102        8.07795313990325
C            6.38288686320698        5.45361457591808        8.69500267010866
C            6.55255333125658        6.71775278242633        8.21913955714526
C            6.62410539289707        7.78347876901152        9.14019928245768
C            6.70888484821869        6.97917687354800        6.90217192807857
C            8.35430577960228        5.12833396524419       -0.05835974265176
C           11.75365342880863        2.98286344142533        1.56426678963611
C           12.40994778807797        4.06718105545902        2.01936459477739
N           13.59049002277637        4.22923618687434        2.51002369942173
C            1.61029755818898        5.13964513889151        6.08861282583753
C            1.48952389020667        2.63572293490940       10.53829059152235
N            1.19503184339548        1.92438133110113       11.53057190015729
N            6.40557088588846       -1.95468455069517        7.52219003600674
C            2.47433071202326       -2.42791521887049        6.36140044018338
C            3.43384933586918       -2.47498450884342        7.26742617812136
C           11.27997140493570        1.83165109372522        5.84464924834673
C           10.69067556127882       -4.01250695288441        4.30950839102777
C           11.10529458293168       -3.30872789381679        5.29014495877568
Cl          11.60644957991692       -3.90294014553271        6.71275851349346
C           12.18009409087925       -2.98130297977356        7.95047966048719
C           10.95854293334829        3.46828397869766        9.53214911952641
C           10.14393067353815        3.91976990814876        8.65384156738979
C           10.14435045231678        5.12209042731736        8.09988320710527
C           11.02815233159539        6.15126244073632        8.33866568478820
C           11.10190171310856        7.35102785142496        7.78114776299656
C           10.54388749135743        7.89766696910379        6.68676267638676
Cl           9.70800088273388        7.10446148339463        5.48811833806870
C            8.92897176011349        8.01116197923016        4.33474274301013
C            9.65872495928394        5.49623637430546        5.37441298521330
H           -0.08794096012871       -0.24795325589939       -3.60980282232085
H            0.65739523447295        1.09343395513404        1.63272856481117
H            0.37946562228550       -0.06810776681079        0.31000763221705
H            1.27129202555532       -0.58397808782924        1.76383853194923
H            6.82824856987417        2.46392124481637       -0.84508014051034
H            6.46839537627994        1.68957748244813       -4.26828482757329
H            3.11406799151207        1.72901511228697       -1.27787774789308
H            3.68894090038384        0.07219218518679       -1.13544482006816
H            4.82093351725738        5.46476474125981        3.09119154280862
H            8.14920972964175       -2.12549196734812        8.43508237645857
H            5.51510380013443       -0.68638039940729        8.80141299767013
H            1.87777580048628        6.02765610046269       13.60305622452419
H            1.21066737772373        9.13964612011172        8.09093916635158
H            6.90072885759636        7.93735868021877        6.53786502238315
H            8.82845605731369        7.36625404973104        8.88189035532619
H            3.49432664505163       -3.46907741185785        7.66762206589638
H            4.36699413691996       -2.20580825426176        6.80319052256205
H            1.30179888927495       -1.18838330119547        6.39141912600547
H            2.06644158570935       -3.34396976027977        5.00139831908622
H            7.95425539393170        0.55995543822056        3.96576659465151
H           14.03940379235964       -1.97284813128413        9.25999259851541
H           16.66287606474017        1.57375860446243       10.82948512775792
H           13.81922359310566        4.32468725585675       13.17995709139021
H           10.64547398492188        8.96032120231818        6.55728465473127
H            9.12456817864604        5.01356969440198        4.61475940245255
