106
 energy: -19.976252630585 gnorm: 0.000351979660 xtb: 6.5.0 (97a52f5)
C           -5.16262680601688       -5.57605882996076       12.19170832497464
O           -5.80003645753842       -6.35623503300209       11.20293401158353
C           -4.94753973163815       -6.95874509849219       10.27108854851016
C           -3.56987648852337       -6.75698077696827       10.27067615481424
C           -2.73658955540733       -7.36856110188059        9.35044590773082
C           -3.28278829580065       -8.21391880006680        8.39194985106553
C           -4.65737859485058       -8.42312898377330        8.37009034480531
C           -5.50779643362953       -7.81792610022267        9.28055207145094
O           -6.87555490574108       -8.12174804300091        9.14200326800482
C           -7.74803939198590       -7.42154253905700        9.99087201619516
C           -2.36424090709649       -8.86437604289662        7.44932960037695
C           -2.66881362089226       -8.98029335673111        6.15136348098045
C           -1.69635324636482       -9.55550605806806        5.19214067819093
C           -2.01602612922866       -9.17100234116358        3.75947409821801
C           -1.04683657410262       -8.57874396150923        2.96380295280683
C           -1.31574913937651       -8.24830569136966        1.65197663128398
C           -2.55951294131150       -8.50679116993715        1.11579516938227
C           -3.53236475001170       -9.09669409813034        1.89464778340100
C           -3.26074011143107       -9.42542162937102        3.20601470377326
C           -1.54262572501376      -11.09813516458835        5.39852993066278
C           -0.98076455863317      -11.46175883594977        6.77748169789253
C           -0.81261793409061      -12.90229210459983        7.06423455894694
O           -0.66725587962894      -13.29136024925122        8.21450558165276
O           -0.87088285351722      -13.76150776842005        5.99417619814886
C           -0.81377396619765      -15.11826174765256        6.40944836919066
C           -0.66897058735114      -16.07943762212956        5.18442177157650
C           -1.94218034961522      -16.98339332911044        5.26898373756372
C           -1.76243734106936      -17.93552400112395        6.50161029406878
C           -1.89941587244741      -16.98394315857409        7.73144050778763
C           -2.15463139383954      -15.58131241357183        7.08949338823013
C           -3.00215186240310      -15.95937764061887        5.82347517273029
C           -0.51410123449123      -10.53113120543678        7.69799354599976
C            0.67281914701398      -10.90120986394490        8.53817250841848
O            0.63059122410438      -10.83999816257033        9.75200618959988
O            1.77786951406719      -11.26350004610444        7.81121035745508
C            2.86056617943721      -11.59446074191715        8.66893442344903
C            4.00249690814391      -12.32832016951621        7.89220602503746
C            5.24162206932696      -11.39384427848549        8.08419004392749
C            5.68982877576960      -11.50884762986296        9.58209608333438
C            4.55183287455355      -10.78573139117895       10.36861670315974
C            3.56663605716983      -10.31457521780178        9.24918523016678
C            4.55497256003660       -9.97616957814061        8.07617966582780
N           -1.08011275021801       -9.26328986336894        7.93604348460802
C           -0.46769425514651       -8.41247618417409        8.98662294295630
C           -1.25402519451993       -7.13816142052889        9.33054617877182
C           -0.64056627022622      -11.63906735521734        4.28547907998156
C            0.70012120775772      -11.42197885363717        4.04834104950658
C            1.28502023516093      -12.00551085923264        2.94046216886904
C            0.53994244236037      -12.79777302678234        2.08168630538746
C           -0.80076786061781      -13.02565312883715        2.31702966876491
C           -1.39344090444513      -12.44031417242334        3.42557728899559
C           -2.76464880097167      -12.54628088918483        3.94323034788423
C           -3.85634138351384      -13.25119924442954        3.45890923171938
C           -5.03743908056054      -13.22084359171110        4.17219849712481
C           -5.13166720539262      -12.50420201457286        5.35427679210065
C           -4.04803507666194      -11.79692026268132        5.83882994201189
C           -2.86704428211432      -11.81325539203970        5.12745409584961
H           -5.92082175424631       -5.19365010053542       12.87627157399894
H           -4.65061418572324       -4.73143140396243       11.72885489756039
H           -4.45863017295758       -6.18948556002010       12.75570069429511
H           -3.12566487317448       -6.10584501090556       10.99910380387152
H           -5.08303466270232       -9.07957402856284        7.63473054889373
H           -8.77719524039726       -7.69130216995697        9.75048384198644
H           -7.61041229341988       -6.34855103034328        9.84980913184462
H           -7.53544273509449       -7.68787232954348       11.02715758376045
H           -3.61973000391431       -8.63362387710026        5.79119893377013
H           -0.71432410510118       -9.11938283582563        5.42807249379375
H           -0.07284995674852       -8.38317659600187        3.37846557823674
H           -0.55208837935400       -7.78976304461410        1.04525413245876
H           -2.76969849823008       -8.25020285337695        0.09033801336425
H           -4.50355065397673       -9.30657023283368        1.47720873300073
H           -4.01382367806875       -9.90550599202646        3.80579251357534
H            0.03281314655522      -15.22057756991951        7.10526802368242
H            0.25064255215189      -16.67060609815736        5.22707445100566
H           -0.65181667242517      -15.49761285255678        4.25907775110548
H           -2.23099441987657      -17.47836710339289        4.32783454055286
H           -0.78645767156838      -18.43081002533298        6.47398665632580
H           -2.52619078572029      -18.72061363662888        6.50653807020789
H           -0.99227895066645      -16.97234461731615        8.34464612590085
H           -2.73012290562722      -17.27501104577584        8.38363027608872
H           -2.61040198193135      -14.82383911616797        7.74444310805700
H           -3.15715599783168      -15.10754265489665        5.15591268532258
H           -3.96052425144520      -16.42543361612248        6.07266873548389
H            2.46264360678877      -12.22150487253307        9.48172013974119
H            3.73121727793339      -12.42427203384830        6.83760363632421
H            4.18991338737315      -13.33292035345555        8.28301660170698
H            6.04492650082716      -11.51922441096153        7.34049862883094
H            6.66205223175970      -11.02947724984274        9.73916289957078
H            5.79179707691342      -12.55726060126440        9.88048359177463
H            4.92977048470101       -9.93407060630711       10.94473327121932
H            4.04898619622870      -11.45734947376605       11.07224726747868
H            2.87502352105131       -9.50442944251066        9.52357800746261
H            5.24685594911642       -9.16434746978910        8.32116262938372
H            4.03549795353442       -9.76075465123712        7.13742238510642
H            0.55151285325259       -8.17120771484134        8.66672665029353
H           -0.37209976470425       -9.02824180229334        9.88531372841095
H           -1.03061685688136       -6.35512278829210        8.59692001560783
H           -0.93278307172681       -6.73885669564753       10.30030336739375
H            1.27142393371196      -10.81622465887954        4.72955717719716
H            2.33220001272426      -11.84337543400980        2.74442940007299
H            1.01345552191668      -13.24614837057127        1.22373945353129
H           -1.38383799639602      -13.64951456049680        1.66285755079714
H           -3.77016028605891      -13.81456900179978        2.54664345933762
H           -5.89271491091894      -13.76674595643075        3.80928516718136
H           -6.05954572900598      -12.49725229023867        5.90216940689375
H           -4.11093125204065      -11.23694592413666        6.75467800958880
