40
 energy: -8.000725402484 gnorm: 0.000475590601 xtb: 6.5.0 (97a52f5)
C            2.25408440042957       -0.83648168213076       -0.64609988305495
O            2.04484781817579        0.06821313179075        0.41582383029387
C            2.83590340709205        1.22299585626733        0.39356036751428
C            3.81237034919201        1.45086548495893       -0.56047141609418
C            4.62605438736594        2.58254085685548       -0.56020910598496
C            5.65180035767718        2.76853563240189       -1.58084764042478
C            5.86550521294194        1.82763244403325       -2.59884719358694
C            6.83224986927768        2.01085218695273       -3.55276916739963
C            7.62464304163212        3.14373001131158       -3.52616749159347
C            7.44166983474395        4.08203939094073       -2.54475446971429
C            6.46246288264198        3.92218129831828       -1.55618000442881
C            6.26465185417033        4.91374742258159       -0.50915425548417
C            7.02650569569563        6.07215498986092       -0.41765759047955
N            6.87195410353847        6.97804519386384        0.51157877932429
C            5.91345471774608        6.69754622488469        1.37464356099015
N            5.11709773619779        5.66066274535542        1.42581857561232
C            5.27942487602936        4.73567981119921        0.47237229462099
C            4.44347025929895        3.55062229764459        0.45173534892716
C            3.43116174716859        3.35350504274503        1.42956315106712
O            3.23205243657848        4.31869426845174        2.43208537145095
C            1.88670050592992        4.58009783326149        2.75834339712607
C            2.63768543427194        2.19058731000609        1.40654438464253
O            1.69113126861727        2.01886664903957        2.43168052660863
C            0.53924008759210        1.29315232835799        2.07237480025356
H            3.27437739589142       -1.22047711006117       -0.61205540478024
H            2.05586659627969       -0.34434328844874       -1.59925466766963
H            1.56071080687105       -1.67021418201954       -0.52949378984797
H            3.95089036034494        0.71300305434201       -1.32266446913199
H            5.26654652630745        0.93751442633048       -2.64566526808738
H            6.97696686146938        1.27276651925003       -4.32477246651955
H            8.38456108455495        3.28634220914676       -4.27714508810637
H            8.06798176419079        4.95487521040819       -2.54249460303216
H            7.80142136567772        6.26528824611339       -1.14004593821966
H            5.76705096031032        7.43191299921966        2.15539939493347
H            1.82319454001491        5.55705296768736        3.23973671036926
H            1.53073861371211        3.81382214598822        3.44810360042522
H            1.27956858318242        4.57920784155921        1.85182944798586
H           -0.24644801833227        1.48378007948516        2.80468777964636
H            0.77892509333384        0.22897094520375        2.06629793643465
H            0.20207518218371        1.60269120684839        1.08199065541116
