46
 energy: -8.882572989812 gnorm: 0.000691119779 xtb: 6.5.0 (97a52f5)
C            1.96743918684132       -0.96837354056959        1.23725080656423
O            1.85391704198338       -0.55336505739153       -0.10476165345573
C            2.73848384850481       -1.16508993333222       -1.00544539706299
C            3.72652209426987       -2.03371680736424       -0.60118619770995
C            4.57784353319092       -2.62662246812941       -1.55236912960737
C            5.64276148467194       -3.53116401316438       -1.43780544275254
C            6.11398327380642       -3.77081239618831       -2.71848707914463
C            7.21331934401178       -4.67813283115563       -3.04518835802223
C            7.54495727697434       -5.68727097054470       -2.19780679267428
C            8.58435379764411       -6.58931020907692       -2.50100278969399
C            8.93850151093885       -7.64362053624045       -1.64733141713497
C            9.94638257466670       -8.53017905038151       -1.95467778814961
O           10.19313512381010       -9.54099133904755       -1.00877342358416
C           11.12805520312705      -10.51622285762073       -1.38516111566420
C           10.66076616461597       -8.36347394582821       -3.18671453889044
O           11.68558213427321       -9.25702300282324       -3.48356129567955
C           12.35653244795821       -9.03217847268860       -4.70274254264608
C           10.30189082193497       -7.31960861077847       -4.02352461210980
C            9.27887493444025       -6.42699994232305       -3.71039577553167
O            8.97473132347183       -5.40501224829740       -4.59630687818590
C            7.96486202352248       -4.51573217477381       -4.29223121853226
O            7.69908802785703       -3.58840254027564       -5.04461091847819
O            5.37801190906138       -3.04516952504445       -3.63400236762343
C            4.43486457276409       -2.33957534449088       -2.92095467912708
C            3.43275272515196       -1.45312676872919       -3.33199919595530
C            2.59056350790201       -0.86396056709234       -2.41309159794817
O            1.62465012233671        0.00301914726709       -2.94820761742615
C            0.84547371982256        0.70628820865908       -2.01798961061770
H            2.94398460983715       -0.68233983679931        1.63047339482807
H            1.81874352219567       -2.04713067585018        1.30414391381341
H            1.19159088256137       -0.46614742699107        1.81681585683418
H            3.86585116709841       -2.27656343929977        0.43411573982995
H            6.02914577908658       -3.93416803797406       -0.51917703408902
H            6.99294625944621       -5.82340037616718       -1.28608755241061
H            8.41035006973143       -7.77538807311046       -0.72125859979754
H           11.17940402369128      -11.27605735228739       -0.60375513378470
H           12.10454722712865      -10.04428063206812       -1.50839456842747
H           10.81376169673289      -10.97139787646626       -2.32616307394664
H           13.13520971701958       -9.78909344985478       -4.80752267789384
H           12.82108780348431       -8.04505451946791       -4.69285800136876
H           11.65544051039429       -9.12693797914675       -5.53329130835163
H           10.81371952186321       -7.16783460762543       -4.95363293726910
H            3.31774507559592       -1.22920610256156       -4.37510343658401
H            0.18347300990470        1.38683493273213       -2.55562501673649
H            1.50158365620728        1.27285196059180       -1.35480223776634
H            0.25366573847671       -0.00440871022384       -1.43843870003545
