48
 energy: -9.471829595154 gnorm: 0.000627815710 xtb: 6.5.0 (97a52f5)
C            0.82643373758106        0.25968150818810       -0.11099181457714
C            2.03765514805082       -0.21816290184021        0.04369405168525
Si           3.26509625596665        0.60467559619436        1.15827585166659
C            4.82205375772651       -0.39577566099902        1.47992644460109
C            2.47423903931795        1.15476353875161        2.72827021083351
C            1.88753341464799        0.46175471414987        3.76044996270254
C            1.34773679385736        1.16031448899503        4.82457587935847
C            1.39869962233487        2.54323669631030        4.84655424974736
C            1.98556565137248        3.24129715740902        3.81042311414228
C            2.53446938326362        2.55008663739105        2.73000634841778
C            3.19067419161296        3.18050641511714        1.54107371388999
C            3.35446378796574        4.55362005533305        1.34433490479785
C            3.96715094746205        4.99661697864616        0.19722225143591
C            4.43464780357649        4.11614160036948       -0.78573005189197
C            4.27222788335028        2.74282638329584       -0.58829957521305
C            3.66068627940810        2.29981893307944        0.55950642380506
C            5.07140155006440        4.74821976350324       -1.98454751105486
C            5.60707180494639        4.05843822008215       -3.07255735658015
C            6.16208909306070        4.75807499612284       -4.12506748866840
C            6.19284422717842        6.14169364247049       -4.11284801262204
C            5.66708718549495        6.83897217049685       -3.04091432577283
C            5.11456876801591        6.14439144589113       -1.99102078405719
Si           4.33255306816074        6.69335738882443       -0.41610202736702
C            5.56110662344895        7.57354867791877        0.69847423752130
C            2.77091076408130        7.63662577956406       -0.73031846007055
C            2.77444530780413        8.82404288710546       -1.28688680823562
H            0.10929469644542       -0.20375358155913       -0.76208320187797
H            0.51207689704260        1.13987479798917        0.41609629492477
H            2.38369604006561       -1.09351008020305       -0.47203222858372
H            4.56401586370895       -1.34712494635171        1.93663006573156
H            5.48121532849037        0.14969524548256        2.14933430503238
H            5.34451178479583       -0.58279187557650        0.54601024201828
H            1.85339271089390       -0.61390066898315        3.72746397559593
H            0.88564661070834        0.62593444302211        5.63865436985819
H            0.97485713300215        3.08027531325590        5.67963778347350
H            2.02067312773340        4.31617221706000        3.82976060027311
H            3.00457487451577        5.26098739613656        2.07326854664104
H            4.61585288555671        2.03571263664349       -1.32042104043040
H            5.58469785310557        2.98312779051254       -3.08616131591932
H            6.57464793006001        4.22183718530783       -4.96431399274345
H            6.62697197034712        6.67766739920161       -4.94116021379196
H            5.68308398348235        7.91520544969597       -3.01736053445369
H            5.10244654995291        7.78937582289724        1.65931281641970
H            5.88178452844504        8.50605417726354        0.24288174986411
H            6.43066661971074        6.94186984593270        0.85671231024767
H            1.86453806934306        7.14363468166537       -0.43451937315489
H            3.69526548326886        9.29306832305509       -1.57534164722683
H            1.86710696957144        9.36700131517430       -1.47362294039992
