47
 energy: -9.634339967180 gnorm: 0.000559349764 xtb: 6.5.0 (97a52f5)
C            0.86014819008678       -0.01542612487278       -0.26427487009875
O            1.94359369398514       -0.00824161458192        0.62563158922360
C            2.65835142028592       -1.20834123150420        0.73221183632061
C            3.70550313821297       -1.21502330644003        1.62690156944721
C            4.50791323699304       -2.34712078792791        1.83210640889780
C            5.57267828261120       -2.36293192169985        2.75019274562962
C            6.34103094093623       -3.47477835783907        2.93206025930434
C            7.40886870207466       -3.44227303685393        3.89620973687284
C            8.25094332061840       -4.45929929455317        4.15818756356894
C            9.31752873226858       -4.45716860001610        5.13243139626982
C           10.16254593102736       -5.56675251591177        5.22790211093566
C           11.17972911783946       -5.60661604399175        6.14612763340919
C           11.40675896181190       -4.54174144039054        7.02341400192257
C           12.49219075584416       -4.63775551978289        7.97662763361320
C           12.86712906705040       -3.74658240218397        8.92159079936256
C           12.22919715458985       -2.53004505673641        9.13756687789586
N           11.70406700750989       -1.51194694867143        9.32938648317118
C           14.02485517056288       -4.08779021028885        9.78097640108899
O           14.60778569019731       -5.13865509368766        9.58280335370233
O           14.38549876052302       -3.20797246711116       10.75857178577744
C           10.55980488237317       -3.43377143708734        6.92588139019808
C            9.54398798204272       -3.39010761885046        6.00685169952008
C            6.04579943483742       -4.67664166176112        2.13808622356445
O            6.73595594331076       -5.67508029480235        2.27947929415943
O            4.99513672462897       -4.66343131753379        1.24504439767164
C            4.23873262568524       -3.51699503179610        1.09612928035335
C            3.17839320407094       -3.51616732259999        0.19245540772104
C            2.37709055345508       -2.40493662938883       -0.01415586476588
O            1.31587719107285       -2.38891067491880       -0.90535158980208
C            1.07428548595111       -3.59611120891885       -1.59167715153770
H            0.38866634051338        0.96889498126960       -0.25060446268670
H            0.14445142135677       -0.77704394137470        0.05143392557469
H            1.22574134504270       -0.23981095930261       -1.26834042090938
H            3.90444808376184       -0.31621126725662        2.18089828369100
H            5.77845446401723       -1.47569766368723        3.32152813405324
H            7.53087366581876       -2.52328736792481        4.43963254224836
H            8.12382980438274       -5.36541881148174        3.59428171024619
H           10.00744238951259       -6.40056267819598        4.56451283775308
H           11.81717724036099       -6.47277386331677        6.19939838270456
H           13.07986581607527       -5.53907556742453        7.92917525792301
H           13.80930769585106       -2.42303163006885       10.77190018209716
H           10.70183196076905       -2.59743789721985        7.58437628830351
H            8.90829768543338       -2.52375729994012        5.96679844486476
H            3.00069331731075       -4.42467790423066       -0.34922643284756
H            0.21252574115796       -3.44678926809997       -2.24419879061182
H            0.84561587803479       -4.38753033858745       -0.87592918204961
H            1.94169584814686       -3.85351335044602       -2.20154510375338
