61
 energy: -12.609347807287 gnorm: 0.000581520012 xtb: 6.5.0 (97a52f5)
C            0.58648683366230        0.18140249260474       -0.31084129004824
O            1.71832747360078       -0.27811083696333       -1.00056555310477
C            2.62664746934152        0.70561359674900       -1.41238224413568
C            3.75966796688366        0.25689684708924       -2.05526284167732
C            4.75613708107234        1.12988700758730       -2.51475531568323
C            5.91915832971353        0.67531826957103       -3.16096072233363
C            6.88164792334825        1.53982545615875       -3.59036530452378
C            8.06175361501689        1.01607238854165       -4.22734212933537
C            9.11091207242961        1.74710520766390       -4.64540376052998
C           10.31412146113635        1.23624158505315       -5.26375940869877
C           11.38328643123972        2.10323602401636       -5.50503761632792
C           12.54707243739715        1.65227341737254       -6.07453001829634
C           12.70039933592850        0.31201173513597       -6.44051514791923
C           13.95260434207149       -0.13207145773660       -7.02187764556851
C           14.17727334753170       -1.34487836609592       -7.55920709356432
C           15.44192284950402       -1.80010519428407       -8.10355991636766
C           15.49788116548637       -3.00473278160403       -8.80980337700803
C           16.68113440294191       -3.47279623584454       -9.32233563103017
C           17.87485876696193       -2.76596400279326       -9.15115764530104
C           19.09871889952372       -3.30860485861480       -9.70500706481317
C           20.35252047131727       -2.81030982599315       -9.62921939832865
C           20.68370470712540       -1.63157149738836       -8.96834153465829
N           20.98059288803175       -0.64944796657752       -8.42406253476472
C           21.44676057725009       -3.56561699186378      -10.28582781259717
O           21.17797003473573       -4.60649742633408      -10.85912885557190
O           22.71033691224004       -3.05494653920865      -10.21666325688621
C           17.81626662111749       -1.56349088287649       -8.44212618647392
C           16.63426225983991       -1.09136929382787       -7.93238594654642
C           11.62826091654662       -0.55411714606790       -6.20558828286705
C           10.46522079316130       -0.10393110467981       -5.63156920453242
C            6.68394581700494        2.98196714680860       -3.37852997619990
O            7.53205732591962        3.77064392624449       -3.77065222259398
O            5.54320303183886        3.42745737109875       -2.74119028726840
C            4.59611805074803        2.51502134523491       -2.31608528515986
C            3.44981368739674        2.97454575694287       -1.67132516411388
C            2.45903563381550        2.12114989569018       -1.21265068457610
O            1.31398602292187        2.56534400844362       -0.57124143990595
C            1.20997281832811        3.96205185636069       -0.40540680497027
H           -0.02343337425097       -0.67583692418200       -0.02150346426061
H            0.01286650304380        0.84138967989063       -0.96411408917716
H            0.90635347290244        0.72542279329111        0.57974409581176
H            3.87522694511595       -0.80123779737557       -2.20036317375376
H            6.05014032789341       -0.38144412144221       -3.30929538616440
H            8.10107992924857       -0.05083340579917       -4.35021848559657
H            9.06711645126832        2.81001198644221       -4.49482081708640
H           11.28791004545037        3.13941706970970       -5.22925323772647
H           13.36011961817560        2.33674123454415       -6.24597464250559
H           14.75169457536289        0.58574819885456       -7.02642841745713
H           13.36178589054017       -2.04236854644017       -7.61107519641714
H           14.59202294180524       -3.56882275925625       -8.95212672075955
H           16.69795777915112       -4.40291652553538       -9.86415434653110
H           18.99708728750975       -4.23332122572498      -10.24711809889451
H           22.73046675148270       -2.21618622924937       -9.72063124420579
H           18.71413595716754       -0.99630355118150       -8.28524508363657
H           16.63175724710995       -0.17175981087719       -7.37528353546319
H           11.71865099219617       -1.59401808216200       -6.46308959440153
H            9.65719296423418       -0.79430442135689       -5.46937049942913
H            3.35910485787095        4.03459420248821       -1.53719332567566
H            0.26818319252605        4.17574304838928        0.10211415776430
H            1.20506074550265        4.45178334824587       -1.38027832226352
H            2.03461812461338        4.32380891312219        0.21055403210123
