45
 energy: -9.509912909483 gnorm: 0.000750516147 xtb: 6.5.0 (97a52f5)
C            1.12135805793253       -0.61178367423055       -0.54157168653223
O            2.10434014693418        0.17128473470611        0.08055371061236
C            2.66616751879043       -0.36369483926714        1.24833712582862
C            3.54136716134158        0.45241585473544        1.93075394854950
C            4.17711489480174        0.04439976969094        3.11079785495445
C            5.06940346108647        0.87775610547141        3.81908726769814
C            5.66893356431263        0.44992867389869        4.95487913903221
C            6.54619485597573        1.27744206257191        5.65872256769720
C            7.30637545067062        1.99667852268318        6.29209243058393
C            8.16286821213626        2.83147967179100        7.02557835918261
C            8.02053655213519        4.21449588831093        6.97798866523634
C            8.85496327656626        5.03331182258028        7.69869456889851
C            9.87063845841533        4.50589974346971        8.50028246926228
C           10.71873044613419        5.41569741989305        9.24596080095627
C           11.75227206985307        5.12479021266957       10.06623810718778
C           12.18954526541485        3.83211055322022       10.33442254145139
N           12.56418494218714        2.75644164683740       10.56134895167668
C           12.46057089468382        6.25099961439347       10.71901815553131
O           12.10380799842012        7.38707009201540       10.46446825051198
O           13.48035585988555        5.96482928717945       11.57754248212562
C           10.00711902706891        3.11621728496894        8.54027495382749
C            9.17246847085103        2.29835266039622        7.82028455011059
C            5.39212146357143       -0.89652593913065        5.45857511679768
O            5.94874951290977       -1.26987114950376        6.48230363973508
O            4.51613749027151       -1.70943185405215        4.77442218687078
C            3.91880275658855       -1.24223133176385        3.61710558317204
C            3.03334780307949       -2.07110910056788        2.93001342253858
C            2.39805992728181       -1.67681268188463        1.76443068205517
O            1.51525857297533       -2.48762945202803        1.06574656852973
C            1.27306473474509       -3.75665689513466        1.62875211108829
H            0.72810695759120       -0.06320164527644       -1.39932100566644
H            0.32037308495406       -0.81327392406720        0.17264087577912
H            1.57166200125856       -1.54987253819448       -0.87264311391807
H            3.73440795264320        1.43264079355513        1.53496242127764
H            5.27434631056047        1.86755261964488        3.45167493952813
H            7.24162307680360        4.63682802381680        6.36563039487831
H            8.72800763281392        6.10147504382950        7.64880079029377
H           10.49594465235194        6.46340346796142        9.13302755166861
H           13.62869609857393        5.00642529459948       11.66296385087521
H           10.77661613502235        2.67291775465213        9.14414155080206
H            9.28932555143581        1.22833815476583        7.86297621128183
H            2.85995607599670       -3.04595715569292        3.34261018011693
H            0.55473945775784       -4.27554753241928        0.99182766845452
H            0.84648022334561       -3.64166751734426        2.62661855465615
H            2.20176594186699       -4.32893554372423        1.65866460481009
