39
 energy: -8.236341075795 gnorm: 0.000507820118 xtb: 6.5.0 (97a52f5)
C            1.01360332398641       -0.34327242709453        0.10417246922722
O            2.22152582304616        0.26881268086505       -0.29029305729765
C            2.90068104880387        0.95978386629175        0.71265215441488
C            2.44496427395831        1.04840563076761        2.00946792687391
C            3.15197910564889        1.73477628604127        3.01338686555464
C            2.58406976458098        1.91735986640606        4.29389068112555
C            3.20564483204325        2.66372051357597        5.25106168299438
C            2.56582897804938        2.87345110793842        6.48072723398948
N            2.04235044982939        3.05525339736775        7.50142890710768
C            4.50707744879025        3.20879863925995        4.99421354508735
C            5.13248272774387        4.02509926072524        5.97298730658169
C            6.37307901666400        4.52544465246955        5.78893581241080
C            7.13140185384577        4.17583234590967        4.64067602717732
C            8.46441544464792        4.60687461204411        4.50322516690761
C            9.23928587606147        4.16408107871982        3.47128528666516
C            8.72162335590249        3.24977002309862        2.55845584225818
C            7.42494733869552        2.83022139635898        2.65860562408773
C            6.56335326387918        3.32648153151957        3.65919794804712
C            5.16761384730021        2.94161750229266        3.77734487014044
C            4.41532919048359        2.30149284556638        2.71961468001271
C            4.82534943504778        2.28189470578446        1.37471665713086
C            4.12600380732134        1.63548348393363        0.37693238784190
O            4.67828864461181        1.71249544419456       -0.90510728339185
C            3.99637364216089        1.00899067291966       -1.90994930432727
H            0.58346087554100       -0.84692525003179       -0.76277565856571
H            0.31089788026701        0.41365161253986        0.45592233591523
H            1.20841829699847       -1.08308279041376        0.88228813433005
H            1.50876357861778        0.59767767469910        2.27714730882089
H            1.61437163534159        1.50147600276459        4.50163559698445
H            4.58809025372305        4.25421234702747        6.87196136079365
H            6.82290039898606        5.15366975338101        6.53819298175001
H            8.87460579384638        5.27733240657290        5.23866807263780
H           10.26093754869274        4.49454958864904        3.38027007522337
H            9.35499621576792        2.85940712992264        1.77850993552160
H            7.08740711247663        2.04040732292960        2.01278249036634
H            5.67620006468534        2.85700697621491        1.06561285934011
H            4.53220591393981        1.12615137046967       -2.85289093405421
H            2.98655135675595        1.41020848505559       -2.00871601876518
H            3.95036058125521       -0.04777174673663       -1.64190797091879
