54
 energy: -11.597512742982 gnorm: 0.000890699215 xtb: 6.5.0 (97a52f5)
C            1.15143069606423       -0.05114979127616        0.44203100628982
O            2.39050664381654       -0.38165093440996       -0.13610102633559
C            2.96413381875129        0.56737070198135       -0.99130006272738
C            4.03918680041686        0.10825830654333       -1.73016632042060
C            4.73085584961091        0.92027779659266       -2.64285843470694
C            5.82066387279632        0.45023757856618       -3.39249962453779
C            6.50945942130140        1.24866979950758       -4.28729306827715
O            7.57317138940715        0.61320354337045       -4.93926026960173
C            8.42376455300964        1.42385489016476       -5.71195979790595
C            6.07541522748336        2.60958234321179       -4.45919819768775
C            6.66982758576240        3.51821942192088       -5.34859383329099
C            7.16622935721659        4.34038438230514       -6.10445500661719
C            7.74693832975666        5.29206525231919       -6.96413336801451
C            7.75325343483528        6.64193149518178       -6.62696404367680
C            8.32519690026654        7.57135065556334       -7.46529234690793
C            8.90296768023047        7.17411848417318       -8.65537012933940
N            9.51823823511528        8.16424562457487       -9.54154774727645
O            9.47925191118942        9.35914802760590       -9.21525644380089
O           10.05756992701009        7.77267435600173      -10.58637284441806
C            8.90158700961996        5.83681022695183       -9.00138445477086
C            8.32997282629951        4.90410405889724       -8.16638222535573
C            5.01032264411700        3.07220935651044       -3.72869077936009
C            4.31634924026903        2.25941944693982       -2.81152503179408
C            3.22917763058820        2.73288373389396       -2.05179306890282
C            2.55705737920681        1.93715049580044       -1.15902588749005
C            1.51365890769514        2.53842217612178       -0.43831476776662
C            0.61509151623760        3.09612342294911        0.17419272356479
C           -0.41909512563536        3.74117838032804        0.87863521080108
C           -1.52704907794122        3.02991074179691        1.32847556481516
C           -2.53469058372074        3.66416490252700        2.01840860813949
C           -2.45868999063263        5.01960699219702        2.27326453575912
N           -3.53189865325569        5.69288914162651        3.00728934315513
O           -4.48272120701710        5.01577359526498        3.42354771461275
O           -3.45250136155525        6.91653330329734        3.18659872170617
C           -1.36376715561777        5.73640182582040        1.83143407326789
C           -0.35370045147246        5.10582927713558        1.14162237462159
H            0.75459782562030       -0.94034982066283        0.93361947872830
H            0.45551492412427        0.26957308966200       -0.33437966143732
H            1.29625322147417        0.73196679119340        1.18678084999807
H            4.34382295733364       -0.91306367544409       -1.59696907421764
H            6.14519649606387       -0.56639799487880       -3.27088665375526
H            9.26618909994287        0.81629792269046       -6.04577794865980
H            8.79734224208567        2.24959992607685       -5.10484978895386
H            7.88148481774003        1.79147452459830       -6.58360652356910
H            7.30453575516467        6.95106916401861       -5.69834719788737
H            8.33209476194865        8.61698407069605       -7.20769742979261
H            9.35520869486017        5.54017801213569       -9.93192928435268
H            8.32812893611253        3.86253274741175       -8.43829147059241
H            4.69169855048977        4.09076182805104       -3.86214169620033
H            2.92214550436922        3.75692438534215       -2.16931661075672
H           -1.58803429354074        1.97376685852734        1.12929072885201
H           -3.39340278518317        3.11682454733327        2.36874307315191
H           -1.31692627299776        6.79259157485952        2.03619189159666
H            0.50054438318258        5.66410303647202        0.79837622218934
