55
 energy: -12.249322623660 gnorm: 0.000963532095 xtb: 6.5.0 (97a52f5)
C            0.89017726169737       -0.02360635691427       -0.17780540442509
O            1.96112258949120       -0.44867982437380        0.63153755086395
C            2.80786708395667       -1.38589070620752        0.04071378440975
C            2.64654813137034       -1.90262970042781       -1.23981405964714
C            3.53018116357242       -2.83354225623448       -1.76632903447909
O            3.29973148706333       -3.29324034606561       -3.04884360688520
C            4.15115686566363       -4.22536394716087       -3.60637963351794
O            3.94941680878001       -4.62809122583834       -4.74195830720565
C            5.29982618925365       -4.73416627296944       -2.83198463579548
C            6.19202500270304       -5.72143621290685       -3.37008356320624
C            6.01188576380597       -6.27877458577762       -4.65218951347338
C            6.84740095512244       -7.22558455447000       -5.15852804442033
C            7.93896566062183       -7.68003812307492       -4.40996225663868
C            8.86060217658034       -8.72499431333209       -4.90877390482523
O            9.67592362927708       -9.22934194487496       -4.16166885444270
C            8.77032028434198       -9.16606689260224       -6.32811718508680
C            8.87309450712086       -8.25828631979250       -7.37591732829002
C            8.79350567988635       -8.68815890047008       -8.68187335524443
C            8.61842809735480      -10.02840596278104       -8.95975444340545
C            8.52928595396292      -10.94040627079315       -7.92826094961660
C            8.60802270991554      -10.51317127129388       -6.62129634489744
C            8.13738764371424       -7.15699175526150       -3.15584189924167
C            7.29253209986949       -6.18140771254832       -2.60323422567267
C            7.51479841730461       -5.65445987856734       -1.28027336573144
C            8.60814768620467       -6.07757296118795       -0.48092931282008
C            8.80878679930925       -5.59093018075926        0.76643219592505
C            7.92655645078457       -4.63316604212623        1.32305744686856
C            8.12337640516819       -4.12751038240464        2.61581095784518
C            7.26108742073558       -3.20326997652732        3.13681917993153
C            6.18140180159086       -2.75386571323122        2.39363755896486
C            5.93968994411145       -3.22125119175713        1.10982653956837
C            4.80574260077717       -2.76109076108717        0.31263682421682
C            3.89696950714313       -1.83165996070837        0.79497951631831
C            4.62312595638877       -3.27687909818359       -0.99248056343083
C            5.51625342442539       -4.24383822970443       -1.54674244574366
C            6.62539678679639       -4.70030351565830       -0.76262872793290
C            6.82775021617261       -4.18149760727183        0.55599615093011
H            0.31214845283459        0.71566846026248        0.37823699583830
H            0.24690479435373       -0.87206680527931       -0.41587150508486
H            1.27285615071658        0.43800472668261       -1.08926171290945
H            1.82548076659303       -1.59093281548279       -1.85519907081328
H            5.18247411372626       -5.94748482359997       -5.24711345490950
H            6.66871046277283       -7.64019649847241       -6.13494190242793
H            9.02235641767961       -7.21554632925902       -7.15437636562995
H            8.87054407222796       -7.97693326360475       -9.48785822478769
H            8.55555624343661      -10.36334203550660       -9.98213475051518
H            8.39820268385874      -11.98783433526939       -8.14529155507671
H            8.54679821006219      -11.21755618026641       -5.80950618210680
H            8.97127182817824       -7.53682234150984       -2.59745440093120
H            9.30186806540645       -6.80069752472667       -0.86721657854584
H            9.64542384672976       -5.92854768517192        1.35349836619658
H            8.96141438371950       -4.47610656892627        3.19426418003740
H            7.42107127047109       -2.82155981380232        4.13199798059313
H            5.52399814660656       -2.02676573027908        2.83311850303429
H            4.00340892858504       -1.41987948044281        1.77901293827126
