51
 energy: -10.834158869288 gnorm: 0.000333746631 xtb: 6.5.0 (97a52f5)
C            0.76008296453019       -0.13515143206970        0.16640940534122
O            1.87942379549551        0.51765152115709        0.71976274770486
C            2.81064070796427       -0.32798906074140        1.32752455702436
C            2.68815242163180       -1.71120179964926        1.40787975924082
C            3.65100167758616       -2.49306299320862        2.02767854324266
O            3.45271998110237       -3.86234410694773        2.06373619740302
C            4.38698019989454       -4.67680219064272        2.67291856846249
O            4.20912339472174       -5.88588045503545        2.69969248829984
C            5.59260889719152       -4.08758351861796        3.28712877792869
C            6.58171618246571       -4.90006130314974        3.93323061252188
C            6.46323229978903       -6.30316874092501        4.02524586557039
C            7.39825623615876       -7.07729515529943        4.63676568563592
C            8.54304663366401       -6.50063826919493        5.21410630248486
N            9.51446722513186       -7.29164741306520        5.84950775439771
C           10.61508682809365       -6.69915797260616        6.60985264062588
C            9.47169859191245       -8.75265635929144        5.79229620167008
C            8.67940986847222       -5.12442614248540        5.13557694334345
C            7.73231592902682       -4.30256361044725        4.51212153377877
C            7.90402681536133       -2.87096128477860        4.44831122827799
C            9.03502918220381       -2.22746685995585        5.01190328476851
C            9.19348000812481       -0.88290989597051        4.95347938153068
C            8.22658501417571       -0.06410730679858        4.32203463544338
C            8.38207849839863        1.32805352400007        4.25781059451139
C            7.43713139282874        2.10357706029695        3.64368301559895
C            6.31417717515014        1.52325710376097        3.07739532574584
C            6.11003572384113        0.14987548523991        3.11319546894983
C            4.93247766287848       -0.47830322973384        2.52397951720047
C            3.94188648908963        0.26242877689873        1.89331615074988
C            4.78871599677210       -1.88376681956602        2.59601200826866
C            5.76931467971895       -2.70493762729856        3.23394548887860
C            6.92441533229156       -2.08860508151365        3.81340315374131
C            7.08323080925521       -0.66745091348935        3.74694561025720
H            0.10606102284511        0.61615912410323       -0.27834058703392
H            0.21250060360451       -0.66200138283856        0.94938280302968
H            1.08141554117753       -0.82943622329791       -0.61154156875512
H            1.83618787661367       -2.20838603249870        0.98725863996126
H            5.59979861450243       -6.77522602779662        3.59765522343797
H            7.25848550719470       -8.14194664446521        4.69363639942653
H           10.23435270702758       -5.93802630751985        7.28778272128820
H           11.33623119943800       -6.24791122313401        5.93146377831389
H           11.12512072445915       -7.45235094616669        7.20627084791018
H            9.31486422907937       -9.08209293693182        4.76717581669492
H            8.66299190508309       -9.12616939272062        6.41717505700345
H           10.40760246786708       -9.18313676330159        6.14217233398500
H            9.55802156268523       -4.68555732186276        5.56190711692943
H            9.79245404931898       -2.81066226400347        5.50125286637239
H           10.06113755367451       -0.41848595759807        5.38938081125046
H            9.25418401624462        1.77993857515931        4.69793319949112
H            7.56657320218620        3.17267353868545        3.59986177708095
H            5.59173836308734        2.16086246866550        2.60245571595679
H            4.01788023898899        1.32924178865052        1.82154759905840
