77
 energy: -14.776940358495 gnorm: 0.000624625701 xtb: 6.5.0 (97a52f5)
C            4.45626460224614       -0.57979661501442       -1.79447788480812
C            5.06335447568498       -1.75874073682851       -1.73781012541154
C            5.31011652934454       -2.49885120978815       -0.50329734158111
C            5.66133461321526       -1.98036132625139        0.73784860894580
C            5.88331728382591       -0.55011392662946        1.07069701817599
C            5.77885302114997       -3.06475218368805        1.64471250553845
C            6.08917983475618       -2.94719984786914        3.01845357875715
C            6.29325273768089       -3.99152533944056        3.87925941911972
N            6.25556702357209       -5.30026222855604        3.56335047157619
C            6.61457053308717       -6.04545276691305        4.62807364665485
C            6.39822274393940       -7.40776135948117        4.68839559410186
C            5.89224019432149       -8.14074128686578        3.59359646197776
N            5.54273239101754       -7.92895529859187        2.29642885008586
C            5.11140206040529       -9.13196680659738        1.75848071880224
C            4.70576817939359       -9.27631226205961        0.43203731589281
C            4.65798846253574       -8.20061475178231       -0.45446143808580
N            4.92910101535988       -6.91177420196810       -0.13901400107660
C            4.73058284608091       -6.19060087288228       -1.25659763170234
C            4.87238762152845       -4.80597628786471       -1.38146474526870
C            5.22756054955151       -3.92399936998549       -0.36514177289339
N            5.52300211380693       -4.22126834639148        0.94988138720360
C            4.31424663608641       -7.04937923102106       -2.34684446245044
C            3.98370927095125       -6.60936471629719       -3.72647853273021
C            4.28213989642114       -8.30978078976150       -1.84854906565989
C            3.86581353639695       -9.55553116615372       -2.56529000492148
C            2.36803283447075       -9.80507212333653       -2.48184938739690
C            5.18399759008220      -10.13413158289344        2.77566068264106
C            4.81727766980315      -11.56256092138249        2.65528445224673
C            5.66855429190304       -9.50021491621709        3.91205237629417
C            6.01960990617461       -9.72783858212860        5.31812991276877
O            5.95357765379703      -10.77065318255296        5.92573987752684
C            6.48548557254982       -8.37936262318859        5.84681168078456
C            7.14475859820009       -5.18248659911235        5.75613366779180
C            8.68262922279875       -5.17178786394435        5.85039708224975
C            9.31856801318699       -6.51160881124010        6.17947589246788
C           10.81307437785861       -6.39994904711314        6.30479570227633
O           11.48411570645116       -6.21615296329202        5.31187391660135
O           11.30832776625030       -6.50196263647353        7.57456262111267
C           12.69747897493619       -6.36687455723858        7.56486235162539
C            6.61301553375021       -3.78979585730049        5.34937649119348
C            5.39146357148102       -3.36032360607016        6.15675794514678
H            4.29223627046099       -0.07257079297055       -2.72484207441958
H            4.08138760519326       -0.10655366235038       -0.91001983132684
H            5.38534071744206       -2.22330166121549       -2.65519147866337
H            6.18083827860124        0.01689349309274        0.18857471851092
H            6.67823084063511       -0.43755876705655        1.80801960287398
H            4.97787905576511       -0.09999298351882        1.47840659362982
H            6.17812220868912       -1.95480094985730        3.42111184769818
H            5.59467793715648       -7.04893482087138        1.78653949252494
H            4.42047439669541      -10.25210056721003        0.08755607496308
H            4.66262750742582       -4.38075956164397       -2.34499688779496
H            5.52281217293017       -5.16414970411380        1.35217538992461
H            4.85994467974492       -6.18718335550858       -4.21862561508594
H            3.20242745139925       -5.84931331329197       -3.71384546669153
H            3.62620469768633       -7.43814341579078       -4.33627707660953
H            4.41911802446687      -10.40848336537537       -2.15444823656136
H            4.18648124275698       -9.49241095617115       -3.61202010132947
H            2.04468985543389       -9.90533148300186       -1.44467052532341
H            2.07298092292923      -10.71368237274011       -3.01026067533094
H            1.80741706866470       -8.97438915474020       -2.91300248732049
H            5.44059097156285      -12.06306625358190        1.91391835930363
H            3.77498692497244      -11.67288270996014        2.35502293645562
H            4.94938087901007      -12.07568248565269        3.60840941376735
H            7.50517565570323       -8.46491613041010        6.22826516705690
H            5.84520591051359       -8.05385218546958        6.67211605871823
H            6.70428098197181       -5.50649514261019        6.70915318486355
H            9.08964282631955       -4.80879558851734        4.90040658716055
H            8.99376915120797       -4.43415772496818        6.59893860804950
H            9.08775719886772       -7.24152338854941        5.39881190676531
H            8.91275679089437       -6.90438770912140        7.11628291128260
H           13.07636384562900       -6.46911323513241        8.58386661974849
H           12.96279080757706       -5.38329669395739        7.17134459033408
H           13.13283823432433       -7.14307283790913        6.93188122142663
H            7.41346992136036       -3.03994417253200        5.44267250180107
H            4.59315508865910       -4.09550316571362        6.05774676516468
H            5.00172861557122       -2.40284338527884        5.81010357699820
H            5.62762980587565       -3.26580099497020        7.21711249123052
