39
 energy: -7.521939666609 gnorm: 0.000978346639 xtb: 6.5.0 (97a52f5)
C            0.35143406964413        0.40215318514611        0.34875649694537
O            1.70324180706738        0.74143951023379        0.57535834578482
C            2.36066391904723       -0.15602694577146        1.44285230178698
C            2.93847789267697        0.30502948607278        2.61471751665157
C            3.53826886262692       -0.58288965427666        3.49244370454614
S            4.31538242676383       -0.24218505325149        5.03452152747274
C            4.68945269173254       -1.95422398106762        5.29014787674479
N            5.32108409898692       -2.62855165022225        6.30324211726078
C            5.37590532793391       -3.91788380108658        6.06762963856874
C            5.97955240353053       -4.87640837865595        6.96742792936937
C            6.52722338114524       -4.41467668216508        8.16044905492157
C            7.11121555211226       -5.27404420829549        9.06034381782532
C            7.16130916138672       -6.62529225204463        8.78295354641332
C            6.63023533339363       -7.11329200230535        7.61202832075016
C            6.02838466112966       -6.26847699982313        6.67547381436005
O            5.47950989955479       -6.73748311681270        5.47645688663256
C            5.57809456195202       -8.12705944042609        5.26118898885708
S            4.63635849455539       -4.37257243940219        4.53978815601266
C            4.23513656968438       -2.71126336296455        4.23416215203192
C            3.57450406355563       -1.94827023723054        3.20398553294012
C            3.01302204862148       -2.42757546558560        2.01298126218216
C            2.42588727697328       -1.55148415920818        1.12423401251678
O            1.90961539516499       -2.01998361036766       -0.10546335321540
C            2.57489809187408       -1.46506263841128       -1.21859745908231
H           -0.07721381103815        1.11288530200101       -0.35889885839420
H           -0.19489705413337        0.45342133150319        1.29161336145511
H            0.28134080711924       -0.60634762806748       -0.06006878406809
H            2.89999298031881        1.35216063667850        2.84877244504255
H            6.48448740738766       -3.36010704188590        8.36935065792714
H            7.52812966433259       -4.89478958723816        9.97865385628057
H            7.61835428940538       -7.30029896958779        9.48796669169369
H            6.68164547114343       -8.16915329160681        7.41994872090349
H            5.12148980018703       -8.35811104435295        4.29794231433602
H            5.04119229546365       -8.66401984818166        6.04382058236034
H            6.62629639459757       -8.42608775393369        5.23511699343384
H            3.05541749978884       -3.47407613096312        1.77828312963389
H            2.10491750515427       -1.83317869266256       -2.13145064485639
H            3.62236618872686       -1.76892578842887       -1.20084247327884
H            2.50852257042236       -0.37677759534898       -1.18671018074702
