66
 energy: -12.334663313756 gnorm: 0.000615961530 xtb: 6.5.0 (97a52f5)
C            1.81298592733814        0.60034326876166       -0.80906735176365
O            2.61278330423251       -0.20508061771291        0.02537206907599
C            3.25165091371312       -1.27061923021177       -0.61924767278714
C            4.04299348808692       -2.11690626450286        0.16248644475845
C            4.70013925371074       -3.18722951647004       -0.38918546773608
C            4.60374517057075       -3.46074840562150       -1.75342345921966
C            5.29403435767837       -4.61770419720413       -2.33765133909997
C            5.44731131991477       -5.87921680885660       -1.74609237444587
C            6.10827217085311       -6.71292395883830       -2.63661463710353
N            6.40817539484640       -6.00590709485793       -3.79302471363097
C            7.06192113699326       -6.35210527263542       -4.96312132095942
C            7.23309114549496       -5.42391311320988       -5.92992410224097
C            6.76033549315169       -4.09394664794197       -5.77231329686717
C            6.99643107796158       -3.12899569768644       -6.85909370654994
C            6.53773008131566       -1.71628657740769       -6.69542269897404
O            7.55569518071139       -3.47023101100589       -7.87912405664673
C            6.10559531786944       -3.74728405115637       -4.61370567947221
C            5.91556359499610       -4.71216718482354       -3.61443871556360
C            6.25849750668158       -8.06201806000540       -2.07816206554168
O            6.81233141618000       -9.01530764016502       -2.59955677923905
N            5.63679016036654       -8.00519716763038       -0.82965983217896
C            5.65566640614228       -9.15744921374174        0.07840038384563
C            4.41767732574322       -9.24216184937483        0.95917350165096
C            4.41124799488957      -10.45455555081418        1.87957663479336
N            3.24653305505487      -10.49451787707148        2.74368094347961
C            2.70948188022316      -11.68994495039905        3.19043633417400
O            3.15926001549472      -12.75328339159945        2.79772578259406
O            1.67025803127071      -11.56022964606652        4.07823544974987
C            1.10155600327239      -12.81177866361537        4.55343986327446
C            0.52364591644277      -13.60851465510730        3.37687734210122
C            2.16761891492074      -13.62800048480497        5.29552040972161
C           -0.03114003813448      -12.45319174759012        5.52784721347212
C            5.10354754058888       -6.65818141721434       -0.50828699649342
C            3.81111928835641       -2.62035028218075       -2.53604649980301
C            3.15138367456103       -1.54975366708331       -1.98541112369590
H            1.36840355124264        1.39063692986366       -0.20258582502325
H            1.01537221171292        0.00069348722254       -1.25001350481609
H            2.42800856965109        1.05524717385123       -1.58680720389345
H            4.12296373116914       -1.90818546802096        1.21461472634345
H            5.31046791435483       -3.82272548202083        0.22808422422205
H            7.42171702421951       -7.36016958318140       -5.06617328116143
H            7.74269906752657       -5.67478010357424       -6.84409497091426
H            5.45444447526367       -1.66471605234416       -6.58978642878043
H            6.81610579536635       -1.13114656941496       -7.57089499664939
H            6.99717388530337       -1.25197778099665       -5.82317489188248
H            5.75852104735776       -2.74415691739121       -4.45718275534073
H            6.56142583629319       -9.09473899220528        0.68776679092120
H            5.75485184275232      -10.06041567942185       -0.53103739074901
H            3.52067306538750       -9.25566574312589        0.33036556346541
H            4.33412650357335       -8.33041395894211        1.56046860620150
H            5.31082106128234      -10.47175958460024        2.50477309306264
H            4.42990145178342      -11.38049287608380        1.29420037012575
H            2.92233946041423       -9.60784540501175        3.12312442817537
H            1.30990548302279      -13.86860653333001        2.67103114237736
H           -0.21931606667639      -13.01589614804692        2.84652141048982
H            0.05183416695670      -14.52846170592249        3.71841181686342
H            2.97937568088742      -13.89513932350307        4.62190202924352
H            1.74684306135861      -14.54484911784758        5.70530597688564
H            2.58924919163149      -13.04619625264698        6.11295889744990
H           -0.78729521339518      -11.85408418432688        5.02404677918229
H            0.35706285832558      -11.86715249470528        6.35873165870018
H           -0.50785181409606      -13.34677491590905        5.92777145428666
H            5.59721685368434       -6.25577388855190        0.38009806996774
H            4.02351267271909       -6.69742455984649       -0.34379676229392
H            3.69613080148501       -2.83979730592175       -3.58298088550135
H            2.54718640799392       -0.92289231817805       -2.61528662365100
