64
 energy: -12.955037698249 gnorm: 0.000530895832 xtb: 6.5.0 (97a52f5)
C            0.13737744685986       -0.57587072249377        1.02255353397565
O            1.48698908520496       -0.92890622770110        1.22916549401623
C            2.29836620955996        0.10775894849765        1.68748600676133
C            3.64276989084970       -0.18828755617689        1.95276203013098
C            4.50631060746702        0.77031595879673        2.40870074133997
C            4.07626665563113        2.08783355625095        2.62669568034286
C            5.00765230080503        3.12493150121662        3.12686932163159
C            5.23859846070810        4.31454462161233        2.37416995739466
C            4.62483707825108        4.50296536235639        1.12458721432274
C            4.87809415821936        5.63810102302170        0.37250865712637
C            4.33633340662293        5.97766235970411       -0.92425717889988
C            4.78168587946079        7.15330387606051       -1.41333103416630
C            4.38764479095671        7.73341768949942       -2.71164409480875
S            5.90522204472225        7.91980235256700       -0.29790482949261
C            5.77081158179589        6.61216000148270        0.85949161286615
C            6.39221333115041        6.45479423313998        2.06977441041201
C            6.14673302114429        5.31630524617541        2.86199203985736
C            6.82529905053231        5.13435386514360        4.09972013799461
C            7.75933578614564        6.16822665163285        4.60154621546693
C            7.33395582597947        7.48652771218665        4.82396724233856
C            8.19818452279462        8.43662146334410        5.29650147921970
C            9.53724261792047        8.13017286870478        5.57680648154536
O           10.34793204332291        9.15575622208157        6.06056650243872
C           11.67839165022031        8.77763800255752        6.33590645829497
C            9.96516977181951        6.81413544903424        5.35117864512405
C            9.10124316147723        5.86339123741117        4.87696074725415
C            6.59525100179059        3.94416127459998        4.85156644549043
C            7.21284450037439        3.75324347629584        6.09879660574150
C            6.96521199625131        2.61514976319901        6.84792361575268
C            7.51584655713036        2.27132568165863        8.13961123569193
C            7.07786625023321        1.09120190803708        8.62525816439740
C            7.47423866929338        0.50493810216621        9.92044353372313
S            5.94501460483627        0.33010226904275        7.51636461412717
C            6.07103139949765        1.64183731522941        6.36232939934776
C            5.44373037493630        1.80284420635360        5.15554421210322
C            5.68662968148526        2.94285180406378        4.36443668676211
C            2.73096792843360        2.38428507311334        2.35884268139773
C            1.86690940325648        1.42445103850505        1.90322006893814
H           -0.40696877857041       -1.45890291526520        0.68502208435855
H            0.06616119013356        0.19585350743637        0.25485377688279
H           -0.30402146020290       -0.22616679504407        1.95689600821048
H            3.98204142698098       -1.19543148316918        1.78736760879032
H            5.53820221389287        0.52523313981421        2.59301042957850
H            3.96569738216192        3.75409344146989        0.72910550884217
H            3.63994641564506        5.34527256904967       -1.44911969332106
H            4.88471094934181        8.69031335879511       -2.87559382197657
H            3.31080862735862        7.90281934387514       -2.75164749625857
H            4.65795928760021        7.06862017404237       -3.53315362912440
H            7.08660578402078        7.20476205335975        2.39808024810852
H            6.30479311220778        7.73816411975990        4.63347860544569
H            7.86219077264495        9.44388377875427        5.46772698677638
H           12.21688345182417        9.64600955530258        6.71784938209345
H           12.16612593896816        8.43545577210205        5.42207307314428
H           11.69496755831378        7.99309231697744        7.09377912774021
H           10.98649180322827        6.54542083441193        5.55000961480185
H            9.45016183093293        4.86158787436963        4.69355359313196
H            7.87272292863037        4.50106379426246        6.49491594213646
H            8.21336653976308        2.90439587164140        8.66214715676950
H            8.51379418197255        0.73767357742086       10.15539863537717
H            7.36922930787367       -0.58052998105255        9.90211804890219
H            6.84999601676614        0.89063487552463       10.72749271979010
H            4.74805630974036        1.05347773587851        4.82865595513015
H            2.37948903598923        3.38635033618440        2.53574994872155
H            0.84258542564373        1.68610553573855        1.71046944998398
