64
 energy: -13.463784591389 gnorm: 0.000613417299 xtb: 6.5.0 (97a52f5)
C            0.71185215839634        1.17088393798795       -1.83712834405972
O            2.12047536009371        1.24588706672594       -1.84919791503730
C            2.76691162295528        0.02842363397732       -2.03225554286443
C            4.17073257789340        0.03077346303620       -2.04498474044107
C            4.88331465083887       -1.12374548120934       -2.21293045747822
C            4.23497526479238       -2.35980462108640       -2.38015938373443
C            5.00168861177080       -3.61191221829875       -2.54987213778490
C            4.79791453885212       -4.71186612041773       -1.65955719554810
C            3.91277537010003       -4.60794413094798       -0.58658084489814
C            3.72172951652820       -5.64442951402422        0.32577761734731
C            2.81436827800285       -5.53807601079709        1.41119132915386
C            2.66100146753558       -6.56514403325531        2.28885056537900
C            3.40105341668205       -7.75140024487676        2.13823769427632
C            4.28164078664381       -7.89199762442839        1.11179663364110
C            4.46926477197897       -6.84590923296648        0.17197918209268
C            5.36759295541338       -6.95249933049192       -0.88881987084753
C            5.55013539869160       -5.92834303710735       -1.81816383109015
C            6.50789952891040       -6.05651565975637       -2.87232911832348
C            7.27417811212838       -7.30883568877663       -3.03881496533962
C            6.62510244285954       -8.54792736772328       -3.17953223941413
C            7.33620026770017       -9.70564379595219       -3.33040039733864
C            8.73986986585140       -9.70379872094764       -3.35227610333303
O            9.38432075763083      -10.92588278211490       -3.50925107893619
C           10.79311362624969      -10.85340293128722       -3.52365642206243
C            9.39124155388400       -8.46769147496850       -3.21342458875844
C            8.68022683568152       -7.30899825756273       -3.06062674353519
C            6.71104657611869       -4.95654885690794       -3.76335210485041
C            7.59396987630159       -5.05978336691587       -4.83831621561889
C            7.78669747294313       -4.02082407084753       -5.74779816727199
C            8.69349734794059       -4.12565421599822       -6.83382406164541
C            8.85026775521217       -3.09539384442495       -7.70715853961901
C            8.11436731482425       -1.90725922006922       -7.55176592940838
C            7.23420564586498       -1.76799025111090       -6.52478949040449
C            7.04327803737243       -2.81733530725040       -5.58922854992567
C            6.14576245345441       -2.71171691818394       -4.52772495640565
C            5.96061758438968       -3.73902276320535       -3.60260368239889
C            2.82882172462944       -2.35964256490076       -2.37292015582858
C            2.11657643410576       -1.20401095944548       -2.20447458813462
H            0.30936935730164        2.17207157934593       -1.67423415674762
H            0.37836093180147        0.52189734926187       -1.02542149792229
H            0.34968754610038        0.79784280944620       -2.79669054993466
H            4.67686877911976        0.97041511457882       -1.91214603278399
H            5.95940844729706       -1.10185083232972       -2.19609259024585
H            3.37038111488310       -3.69385004398481       -0.43671049204527
H            2.24764887458799       -4.63073535632064        1.52904182283592
H            1.96737539469750       -6.47350306303011        3.10851137614434
H            3.26633511245316       -8.55358519674662        2.84511892951336
H            4.84761498478701       -8.80052544326633        0.99917224433999
H            5.94984833181380       -7.85048801633170       -0.97148010935780
H            5.54889671148800       -8.57069767265443       -3.18658746188378
H            6.82904571901598      -10.64786550290486       -3.43918820920776
H           11.19390993309330      -11.86043530077377       -3.64702100908659
H           11.15662663903767      -10.44424560350216       -2.57989770863019
H           11.12711084493220      -10.23727616424276       -4.35976003943993
H           10.46513214680582       -8.42909437161680       -3.22283561320609
H            9.19726763942884       -6.37340043577262       -2.93299919335305
H            8.13350899932349       -5.97486931034666       -4.99220919458427
H            9.25700985781473       -5.03451778589987       -6.95521951601243
H            9.54311830328842       -3.18615223353748       -8.52754186299910
H            8.25150027752400       -1.10259712226366       -8.25538388708597
H            6.67108653358828       -0.85814789743321       -6.40878003394690
H            5.56652333595359       -1.81218882524514       -4.43974704366494
H            2.31309666110334       -3.29269612315306       -2.52258750178829
H            1.04262956151380       -1.24216203472830       -2.20807532846575
