64
 energy: -12.899639747640 gnorm: 0.000877549509 xtb: 6.5.0 (97a52f5)
C            0.96454985390887        2.39253729454782        0.77073518007204
O            1.96393053145119        1.39804875039455        0.74486748316704
C            2.64266980709384        1.28524429000817       -0.46352299369209
C            3.64685208490114        0.30851602927923       -0.55833235827576
C            4.35760744323715        0.12720653533590       -1.71184627934860
C            4.10818982197270        0.91335566910249       -2.85051907824869
C            4.86391899265239        0.71154088190088       -4.10417843249044
C            4.89693405500361       -0.57275341616877       -4.73218845245786
C            4.19357702415337       -1.65116408418858       -4.19562388130646
C            4.23672403522116       -2.92456454774935       -4.76158131158115
C            3.53569472060237       -4.02393158457374       -4.20237894917032
C            3.61652165651829       -5.25736219148886       -4.76880609265539
C            4.39615795095716       -5.46599701947309       -5.92033914586914
C            5.07992625506934       -4.43736368078057       -6.48877778023528
C            5.02126383359460       -3.13434516379718       -5.93076540831050
C            5.69968433194482       -2.05410557191242       -6.49320013939914
C            5.64131167103767       -0.77169804766597       -5.94774606321045
C            6.32726418975314        0.32025990171852       -6.56515617595274
C            7.06563914106198        0.12301060057884       -7.82962083348332
C            6.43181672309378       -0.40217634983979       -8.96929112249456
C            7.11730788731066       -0.58609570780625      -10.13761359380724
C            8.47827270952083       -0.25899501507718      -10.24566524990431
O            9.09926700079539       -0.47947982844061      -11.47000648495823
C           10.46676794848010       -0.13682763128985      -11.50836397836956
C            9.11400785159076        0.26650762105826       -9.10923587261302
C            8.42859075869217        0.45080244513307       -7.93980648530975
C            6.28742828195558        1.60475574888746       -5.93940592503698
C            6.92065539475603        2.70916624192044       -6.51608389426146
C            6.93011812139575        3.95599005163992       -5.91392047464172
S            7.75461562892118        5.17401645715222       -6.73118593340881
C            7.94502016202955        6.68230705953858       -6.24755488714595
C            8.62372861566581        7.57070807963638       -6.96582609931553
C            6.27850290300472        5.35804899112413       -4.02053751912482
C            6.27763531871186        4.14764072891513       -4.66893771259709
C            5.61291822508768        3.05363212092279       -4.10308843239523
C            5.57318496247900        1.79676695630389       -4.70697355244355
C            3.10540987507913        1.89457549652588       -2.75229623856381
C            2.39499744307404        2.07583738389206       -1.59736928361627
H            0.49941502986727        2.39573672912863        1.75755024925715
H            0.20077238344448        2.17497183429945        0.02235048159623
H            1.40883559591252        3.37235309543458        0.58849359745721
H            3.84606514072090       -0.29824851174199        0.30724303835935
H            5.13658842273317       -0.61462785184447       -1.75579073713596
H            3.59292525006631       -1.50571613540623       -3.31788169958239
H            2.94088146905506       -3.86725946993017       -3.31922532243164
H            3.08179571490528       -6.08537632729426       -4.33315080514586
H            4.44939515523876       -6.45139508896821       -6.35335935011358
H            5.67402726286904       -4.59933411538704       -7.37149529723260
H            6.29294016793120       -2.22726223046411       -7.37103051096688
H            5.38377658710297       -0.64176271809347       -8.91466339366823
H            6.62201403456650       -0.98604427350837      -11.00455341193323
H           10.85215928616145       -0.34858424782773      -12.50664065948388
H           11.02193632025164       -0.73382026572604      -10.78339472264308
H           10.59172592204744        0.92711629083348      -11.30197411754646
H           10.15601095852201        0.52520581988813       -9.15536721034306
H            8.93767810329693        0.83449591267563       -7.07227377774385
H            7.41937319204767        2.59947913519710       -7.46333206015832
H           12.39325664372893       12.33979895959002       -8.67204509721322
H            7.84397633556772        8.78265912949033       -1.43908805645245
H            8.76320063267689        8.56889674390283       -6.65999167428335
H            5.80475282145282        5.52216650054526       -3.09927577863710
H            5.12321506198854        3.19393612242809       -3.15774096735452
H            2.88638914706581        2.49488044470101       -3.61881920365038
H            1.63159015053614        2.83159902172111       -1.56164006095023
