62
 energy: -13.280655259369 gnorm: 0.000886931663 xtb: 6.5.0 (97a52f5)
C            0.82956698703394        0.63925484836105       -1.63209468438196
O            2.23368634082686        0.62411827386682       -1.76738049178304
C            2.83179350717022       -0.60056078402881       -1.49255122339834
C            4.22557110404918       -0.69168531585899       -1.63416639495267
C            4.89087560660686       -1.86061368024360       -1.38871574490440
C            4.20259281086627       -3.01653465573650       -0.98456981325728
C            4.91847944913825       -4.28585560503871       -0.73276599669571
C            4.80709319619326       -4.94510934912689        0.53175514468925
C            4.06008521579224       -4.39225487425968        1.57156568835038
C            3.94407534822603       -5.01186720238323        2.81484929367091
C            3.17562100586382       -4.45056571256053        3.86773509060025
C            3.08032780730920       -5.08042035540603        5.06858032653704
C            3.74306497415446       -6.30126559475224        5.29146402935143
C            4.49088089797292       -6.87169263189951        4.31046831186412
C            4.61712095044430       -6.24798350615892        3.04097675503691
C            5.38136107713321       -6.79948383191501        2.01605860862880
C            5.50369553830782       -6.18144644790070        0.76821371253508
C            6.31451946970947       -6.74993487987306       -0.24868819771761
C            6.99761898620515       -7.93954169648290       -0.01877508358164
C            7.60903282492608       -8.98741439064112        0.16123184953894
C            8.31834455478241      -10.18467076805558        0.35310470049825
C            7.66610890900304      -11.41367703291126        0.29823793125760
C            8.36249422374866      -12.58910655981519        0.48297099734332
C            9.72108380323849      -12.55794682587225        0.72539642410000
C           10.38300710238387      -11.34797111335659        0.78249917638957
C            9.68893205385820      -10.17117166134420        0.59813524223509
C            6.43187690520717       -6.10038330816865       -1.50219858337661
C            7.22126547705304       -6.65775717825674       -2.52556698069388
C            7.30713956350506       -6.04489041741917       -3.76344576950815
C            8.05595048658218       -6.48668323721035       -4.91835924022917
C            7.93227904284523       -5.67926193821339       -5.99313685202208
C            8.57888837043125       -5.89057623566284       -7.30376511383491
S            6.87725840366750       -4.31741226020313       -5.64586827532327
C            6.59496017060033       -4.85191347571647       -4.00259959843550
C            5.82408285469677       -4.28056506663213       -3.02449474168112
C            5.72786744855023       -4.86919806868112       -1.74902782928227
C            2.80823686742633       -2.92368075753259       -0.83866805786071
C            2.14246955307733       -1.75391099498166       -1.08456393863077
H            0.46429260519619        1.63610497748211       -1.88284644563407
H            0.55004259663673        0.41154425904077       -0.60249152821681
H            0.38003353263999       -0.08149909675768       -2.31666601529576
H            4.76239636795709        0.18799614375406       -1.94215370980375
H            5.96184439501963       -1.90412777713858       -1.48843962688858
H            3.56407003111576       -3.45194177211405        1.42222523706139
H            2.66680374335206       -3.51710199455415        3.69994150998239
H            2.49285414137096       -4.64408403327496        5.85974286365422
H            3.65488289950080       -6.78462082787213        6.25063341287615
H            4.99817601344267       -7.80486735661500        4.48440302490375
H            5.89648851426855       -7.72527694314080        2.19456421305576
H            6.60662880266267      -11.43352765079431        0.10744541339362
H            7.84532305297207      -13.53358131159337        0.43762586587906
H           10.26446473914851      -13.47752156883586        0.86959391797842
H           11.44380786381494      -11.32307136237623        0.97149003071982
H           10.20140158297515       -9.22520072265697        0.64119992600344
H            7.75505441218496       -7.57341077775541       -2.35242986815457
H            8.65474509369060       -7.38218919935144       -4.91592996233845
H            9.32936896203172       -6.68076065227341       -7.25228352637483
H            9.07325067340294       -4.97906410132291       -7.64237260848623
H            7.84228556593920       -6.17360524664125       -8.05695477065983
H            5.28057316938589       -3.38295501061627       -3.25064664453152
H            2.26126657326790       -3.80390773023819       -0.54708937122051
H            1.07486577947980       -1.72073595218814       -0.96619200898613
