83
 energy: -18.069307696178 gnorm: 0.000839584637 xtb: 6.5.0 (97a52f5)
C            0.86530681502872        0.30152966188165        0.61578709694003
O            0.81159124946022       -0.65708904519734        1.64827499620588
C            0.60542904592279       -1.96577613288678        1.22161983557852
C            0.52650118679176       -2.96391246230774        2.20343438726545
C            0.32031906319756       -4.27435534237616        1.87197103772993
C            0.17704497864771       -4.67181152633208        0.53152510757142
C           -0.04352229478399       -6.07794399304586        0.16024616644081
C            0.76133125132371       -6.66230808144640       -0.86299451353894
C            1.88139276572252       -6.06270926449231       -1.46262765672686
C            2.39444891538918       -6.93882522664711       -2.39053449800011
C            1.60141762929671       -8.09016888361580       -2.37996022858210
N            0.61697825314717       -7.91587296991144       -1.43410805628978
C            1.76784155368000       -9.23119113697667       -3.26068173565527
N            0.85913853181226      -10.19045525070098       -3.39796351583706
C            1.31259246652383      -11.03890707899370       -4.35842652321939
C            0.51790475277089      -12.15351793922421       -4.78611719770051
C            1.02995999368856      -13.29202188619199       -5.53273164511478
C            0.13904872561960      -14.14935676762501       -6.19164076076632
C            0.59011826627550      -15.23750987630101       -6.89525054632909
C            1.95040819527324      -15.52755329248597       -6.96323589604140
C            2.41002447255220      -16.63936058354469       -7.68079599195570
N            2.78995492214268      -17.56413700549018       -8.27269961929328
C            2.84227639181262      -14.69472795358655       -6.29219622276261
C            2.39452540642488      -13.60394711079753       -5.58967312090640
C           -0.86531157710205      -12.12147706235723       -4.29981338043659
C           -1.78265588045605      -11.07741239638823       -4.59093627999477
C           -2.59634389755693      -10.89105532918816       -3.49762828643271
C           -2.21323571320379      -11.81393051799883       -2.51384786427079
N           -1.21544156772924      -12.60271552129015       -3.03685583475799
C           -2.51854595017849      -11.71461268101495       -1.09594586210925
C           -2.73701346815330      -12.76146867563603       -0.19167599119639
C           -2.87223656072938      -12.21234023146023        1.06484939342083
C           -2.70291804508459      -10.82030275093903        0.95087213125113
N           -2.47839937950802      -10.54247530907696       -0.38012837088118
C           -2.76149922763486       -9.82454910401496        1.97126086128274
C           -3.38990054637931      -10.10662832052272        3.25794446632504
C           -4.48192565182366      -10.98371832683602        3.36092347460848
C           -5.07597005448897      -11.23783186649671        4.56601599206594
C           -4.61775035240212      -10.63627737556461        5.74666843120745
O           -5.28355091308874      -10.94814188775291        6.92861087742491
C           -4.78189507082143      -10.30618212692115        8.07866201500538
C           -3.52402465824706       -9.76389096578230        5.64987559962384
C           -2.93087367636982       -9.50834464817533        4.44345773120705
C           -2.22665212447683       -8.52920437271755        1.67345199569628
C           -2.58980071865773       -7.35525486784472        2.36704199412943
C           -1.86156759512550       -6.33300340549244        1.85194347574372
C           -1.01836647410605       -6.86100787367415        0.84822607635488
O           -1.29735302314909       -8.20708230957224        0.69631359948184
C            2.56883991803986      -10.58294577179653       -4.84628264417161
C            2.85045366427302       -9.44582291773309       -4.15698975904288
C            0.26889545708206       -3.67022832074529       -0.45041220465511
C            0.47319725371623       -2.35892179837529       -0.11798588034634
H            1.01832667574910        1.28446607007822        1.06365941886708
H           -0.07616637850439        0.30728278648263        0.06453386595543
H            1.70034459631188        0.08406370831353       -0.05176073061620
H            0.63701944775461       -2.67087559774952        3.23234734859598
H            0.29870780639095       -5.02626816942444        2.64172113394986
H            2.28487176037710       -5.09411312332737       -1.21934222329997
H            3.24836451639907       -6.76632600419406       -3.02410044634467
H           -0.09671325347950       -8.58896734737083       -1.13940782473340
H           -0.91494563853005      -13.93751877099353       -6.14565409967197
H           -0.10578800590208      -15.88263434569856       -7.40398293213362
H            3.89366542186992      -14.92445736794598       -6.32705937238746
H            3.09498749645977      -13.00730960876663       -5.03453828222981
H           -1.73573461924412      -10.43456203438336       -5.45504074290216
H           -3.31891040495406      -10.10260567877657       -3.36827437307076
H           -0.58710168382452      -13.16600665446473       -2.46570975281009
H           -2.78639358442970      -13.80766003697920       -0.44350211064661
H           -3.02641782839573      -12.75722278935389        1.98123375960932
H           -2.24516942313043       -9.60695324609324       -0.72685415740340
H           -4.87678155499453      -11.43084039995874        2.46560889460953
H           -5.91764511268825      -11.90430704771935        4.63136406408576
H           -5.37688929869537      -10.61985515391926        8.93758200217893
H           -4.86568441735091       -9.22411184548925        7.96715736135729
H           -3.74321917530523      -10.59616611471270        8.24388911681344
H           -3.14162923465355       -9.29038291296193        6.53549075705293
H           -2.07415532052748       -8.85864666680837        4.39700137057612
H           -3.33063270694633       -7.28056030133169        3.14454153231219
H           -1.91997644778563       -5.30326322910291        2.15905541599886
H            3.14473553003152      -11.00091912189524       -5.65478685974919
H            3.71446339953337       -8.81380783722760       -4.28053483966747
H            0.14844681116009       -3.94976654414434       -1.48292846858321
H            0.52970392295189       -1.62060873041725       -0.89663548125742
