84
 energy: -18.063732813372 gnorm: 0.000855646314 xtb: 6.5.0 (97a52f5)
C            1.44984932900111       -1.03509884950759        0.24854799636816
O            1.45334919821241       -1.82646001349968       -0.91763700551287
C            1.06641682276645       -1.16230154881863       -2.07774505615304
C            1.05368578712130       -1.89774229890568       -3.27135189914066
C            0.68654682676209       -1.32385831069395       -4.45656153982113
C            0.30862646182479        0.02819441857210       -4.52425843418053
C           -0.08287522276877        0.64848168334182       -5.80003177986739
C            0.46990148441109        1.90925013035608       -6.16164427130137
C            1.44240433688913        2.62626114508586       -5.44398964351349
C            1.67107960775524        3.81269498416809       -6.10048891692894
C            0.85829580460682        3.83428928064336       -7.23736794531243
N            0.14164080815297        2.66135888598220       -7.27398656662925
C            0.77926068953971        4.90967826197522       -8.20173579988033
N            0.10902453937642        4.80706481777630       -9.34256829439726
C            0.24459169058485        5.98702868397650       -9.99536654903617
C           -0.35265290839272        6.25357580518214      -11.26318829749131
C           -0.12392720290931        7.51911796677437      -11.96808312200975
C           -1.17498295408773        8.19510384209366      -12.60733288030495
C           -0.95590976587952        9.37681108203605      -13.26862052804464
C            0.31356318309487        9.92677747478249      -13.32254828506045
N            0.54241357870809       11.18394715236548      -14.03002281019599
O           -0.42440402372322       11.75076032899347      -14.56651897517348
O            1.69616378785033       11.64346717921222      -14.07142799498224
C            1.36480286149242        9.27466152174201      -12.70130920095869
C            1.15495103644164        8.09404399348706      -12.03532109403426
C           -1.16062080499126        5.22556130036859      -11.83194648295761
C           -1.75807679760863        5.17779239187985      -13.10630060102817
C           -2.37840926727769        3.95379283338247      -13.24151207262331
C           -2.16865815607874        3.22958744903722      -12.05873069102493
N           -1.43976669769659        4.01626847645564      -11.21982662510831
C           -2.58598373887420        1.89259545426730      -11.73754575391480
C           -3.26130904812058        1.01173847242490      -12.58801234594841
C           -3.47146975722236       -0.15802134450941      -11.89723268113036
C           -2.93699565460618       -0.00616462292317      -10.60515100052026
N           -2.38138885953025        1.25508241279604      -10.53563992032644
C           -2.97086203989938       -0.97268247811166       -9.55984268913226
C           -3.71173542797754       -2.22732500597748       -9.76180087413091
C           -5.01037064807523       -2.23249302468696      -10.29860277162944
C           -5.69576039830941       -3.40105926321017      -10.48232226998641
C           -5.13092967863013       -4.63930044291230      -10.14501294692240
O           -5.90022934692465       -5.77804706677306      -10.36394959706551
C           -5.28119408486852       -6.99135940536584      -10.00183134098657
C           -3.83413206744517       -4.63996718248337       -9.61138089064552
C           -3.14799332102432       -3.47095984264931       -9.42638186410510
C           -2.31155959689823       -0.72655876591813       -8.31538989599434
C           -2.52741505312976       -1.57044750238013       -7.20524775711062
C           -1.74598934914208       -1.13310051655214       -6.19080603681619
C           -1.02902792793287       -0.00717910666486       -6.64805101360183
O           -1.41924870138773        0.27395304258029       -7.95130151262872
C            1.02573233435752        6.87982608743810       -9.20733950293803
C            1.36876777325456        6.19720268110950       -8.08379787752724
C            0.32214537324123        0.76207753394039       -3.32559321001122
C            0.68835164363899        0.18662889988238       -2.13965223117013
H            1.77013379496180       -1.65463250231412        1.08747343358732
H            0.44162842760416       -0.66745870759765        0.44513114348629
H            2.14776493684305       -0.20413146691541        0.13593448750044
H            1.34611927460710       -2.93202795181885       -3.23152068903976
H            0.70788189916664       -1.90206331741016       -5.36417283153344
H            1.93634817696904        2.29965838883228       -4.54444706651120
H            2.36001177081787        4.58477440978022       -5.80113498791464
H           -0.53093866843199        2.33917105116097       -7.97487552295242
H           -2.17012563352275        7.79047130958521      -12.54433323640312
H           -1.76611083288233        9.89569961128816      -13.75182191443744
H            2.34869276908720        9.70853106476380      -12.75625701869772
H            1.98431107890818        7.57563286563560      -11.58661613521051
H           -1.70363204345185        5.94470844444411      -13.86009145335813
H           -2.91559785108718        3.60418675481166      -14.10730872949622
H           -1.07888487760613        3.71445056094013      -10.31282215516435
H           -3.55247916744151        1.21406967726037      -13.60519068968517
H           -3.94468498719809       -1.04330857124312      -12.28751909901625
H           -1.89315227920107        1.60159209585048       -9.70659949995673
H           -5.47750243725901       -1.29242904868510      -10.53592013618196
H           -6.69207504340027       -3.39312807958908      -10.88747844969626
H           -5.97166802652630       -7.80841020197467      -10.21588815683785
H           -5.05549319013936       -6.98941140821163       -8.93437810780691
H           -4.37187494760055       -7.13446256266656      -10.58746326324399
H           -3.36854212928924       -5.57141874428411       -9.34602578174620
H           -2.14389180815405       -3.49412577542474       -9.03902539885287
H           -3.20988115904724       -2.40169512113474       -7.16125684888626
H           -1.69974738974457       -1.55802082214773       -5.20286307053368
H            1.27181899349665        7.90255481387581       -9.43914706168367
H            1.95340680672027        6.56333832873817       -7.25597660842740
H            0.00552018701071        1.79058179656396       -3.34678527139421
H            0.68086789813187        0.77851402633951       -1.24282852930548
