58
 energy: -12.080859038628 gnorm: 0.000886931112 xtb: 6.5.0 (97a52f5)
C            0.34687162492795       -0.38740037259307        0.13332576696371
O            1.73971685245508       -0.56082663569592       -0.01310659142313
C            2.47331632345280       -0.40125286732184        1.15909055478322
C            3.86098449518221       -0.59535821869922        1.08906005596343
C            4.65469965851546       -0.46622689373964        2.19564738898798
C            4.10758469182458       -0.13319641927036        3.44466418362675
C            4.96153115199539       -0.01605347407334        4.64891810124972
C            5.00459787622684        1.19368851611792        5.39360285936001
C            4.27598035835718        2.33358365040838        4.97718716916983
C            4.33619858109611        3.50800118915437        5.66342283197604
C            5.13952324246286        3.61586396276478        6.80221584850584
C            5.86636391680434        2.54742951531623        7.23084553491724
C            5.82504100507947        1.30368720957487        6.55631098825317
C            6.61615661664218        0.20614555245780        6.99186790506093
C            7.46705204816543        0.31951362057791        8.19855355788464
C            6.91749860948960        0.63973947397664        9.44987302469019
C            7.70526810055738        0.72996230774887       10.56474747309830
C            9.08858780000346        0.50503340159453       10.50151566302764
O            9.81518500524336        0.60985421225556       11.68458844902004
C           11.19252993388369        0.33531247125451       11.55746210808461
C            9.64011296332725        0.18901730894261        9.25071329548680
C            8.85234635033546        0.09958736401294        8.13483989191385
C            6.57847963209382       -1.01536043158137        6.24972950860578
C            7.29639679643331       -2.13521940045077        6.67185739293203
C            7.24740838562861       -3.34928766763275        5.99074101039427
C            7.98028614708951       -4.48718541741899        6.41911974356681
C            7.90239099932503       -5.65875596176757        5.73478585943875
C            7.09191159353082       -5.76714186059476        4.58964130747758
C            6.37272449430755       -4.70200434591153        4.14779800352917
C            6.42703753416268       -3.45926308535285        4.83186181677551
C            5.69791962285715       -2.34946975179123        4.41131675082315
C            5.75170442964123       -1.12645455586234        5.08106033884733
C            2.71949255825572        0.06706162464578        3.51342315994560
C            1.92554255668875       -0.06263904595158        2.40573473725912
H           -0.12933876608710       -0.55150571391193       -0.83429111379616
H            0.12939120582785        0.62936205744496        0.46428491507110
H           -0.04758930338691       -1.11381375064873        0.84581221437468
H            4.28926765032915       -0.85134172861340        0.13614727566587
H            5.71905383298549       -0.60790969369878        2.11774878778024
H            3.67637088305780        2.27082576970802        4.08695790574073
H            3.77224915744481        4.36181726413812        5.32508019790534
H            5.18853467438817        4.55172784834823        7.33452678652503
H            6.50175304922934        2.65146044746094        8.09188652767577
H            5.85506741453441        0.79618416507535        9.52423167077263
H            7.27441759972361        0.97168312023935       11.52016717830309
H           11.65727349207066        0.41585421326174       12.54111290951460
H           11.65766958293582        1.06031754006558       10.88802007521401
H           11.33901681811097       -0.67859525854734       11.18231645225243
H           10.69744405531765        0.01735375148393        9.16419708836993
H            9.29373647976018       -0.13014089325912        7.18013275610394
H            7.89589126684557       -2.07270525578995        7.56012268902507
H            8.59911329100732       -4.40807826307544        7.29611097144193
H            8.46354278192393       -6.51576343749124        6.06950436515323
H            7.04391892699781       -6.70513125681303        4.06132844973438
H            5.75322174436607       -4.78769163472992        3.27178391533495
H            5.06158116619018       -2.45325347184815        3.55300335683326
H            2.28054366510839        0.30719395161508        4.46670469914114
H            0.86602737527171        0.09328525449438        2.49607423566784
