52
 energy: -10.698088083296 gnorm: 0.000529759175 xtb: 6.5.0 (97a52f5)
C            0.86711166848460       -0.39336294581960        0.82991332457833
O            2.06510865843847       -0.16143159828052        0.12339414236991
C            2.81052055499132        0.92513457447381        0.57785192436999
C            4.00265256752335        1.22312343644810       -0.09678676667412
C            4.79180077598900        2.27516865542256        0.28297265355149
C            4.43437875424470        3.09308565497702        1.36347577013695
C            5.28271067356923        4.23943013204599        1.77060119644035
C            5.54256386170507        5.30047367723293        0.86087125503376
C            4.97751205093293        5.30971333608761       -0.43722009988897
C            5.23855406843665        6.31334970319892       -1.31878864335431
C            6.08131422195660        7.36799015945562       -0.95424816297636
C            6.62852059437768        7.40773462924512        0.29137082436590
C            6.36635522517956        6.39599046429838        1.24635547996507
C            6.92277358122551        6.45506441686492        2.55309336698463
C            7.76705818277946        7.60579361426878        2.95695997125084
C            7.25607247118224        8.91099417141357        2.96146141104956
C            8.03961826416367        9.97393974521636        3.32183863409779
C            9.37866218090227        9.79802912186819        3.69757286548560
O           10.10688954148254       10.93516188774320        4.04333144513396
C           11.45625361153114       10.69489525741459        4.37527734443423
C            9.88902711437405        8.49212150374206        3.69735807231067
C            9.10468260602567        7.42809575959281        3.33744018280521
C            6.65637543832462        5.39821525819874        3.46569056663499
C            7.16709015528580        5.42215400821585        4.78584347107093
C            6.92905919125657        4.40501438925845        5.65843710630863
C            6.16538892311907        3.30258046674426        5.26210674166241
C            5.64088744024930        3.24879079639746        4.00722120931014
C            5.84751159200216        4.29329963043498        3.07415268303309
C            3.24377226397088        2.79407564922613        2.04060165286996
C            2.45364116203547        1.74162686682235        1.66016598875299
H            0.36549363243292       -1.25739230823225        0.39178884899282
H            0.21032402861747        0.47353166076470        0.74753002962879
H            1.08580765733080       -0.60754103683702        1.87676830439968
H            4.28459240304803        0.60042736642070       -0.92699654086521
H            5.70852138652388        2.48178141129940       -0.24190011499976
H            4.32194298752252        4.50740155852242       -0.72487674774502
H            4.79913552968823        6.29638013641648       -2.30272454123264
H            6.29408622376083        8.15106062130512       -1.66343120735175
H            7.28133968299328        8.21905502736515        0.55948404751415
H            6.22749636243848        9.06556375575830        2.68429561602949
H            7.63935745783293       10.97224149309736        3.32259444199849
H           11.93523348912315       11.64828592055810        4.60266416586549
H           11.97292111852080       10.23540953825866        3.53135675504519
H           11.51645436079779       10.05264908797201        5.25501214353227
H           10.91129952230112        8.32063968802670        3.98082929455519
H            9.51555485746137        6.43312761282568        3.32780250588205
H            7.75004025386226        6.26852906608823        5.10239785751643
H            7.33173764914115        4.44437147271326        6.65736119254764
H            5.99048947830551        2.49672816490339        5.95599184616987
H            5.06205006989813        2.39278989887723        3.70967756623254
H            2.94868158600765        3.42027881577145        2.86488589446093
H            1.54539286664213        1.54336862592917        2.19918303072543
