56
 energy: -11.895713143164 gnorm: 0.000697320376 xtb: 6.5.0 (97a52f5)
C            1.34378853106294        0.96306908819859       -1.13921342051242
O            2.31506583706509        0.35956490854243       -0.31349870999932
C            2.95721585318971       -0.73928188077815       -0.87794324111654
C            3.95588273987956       -1.36945931658634       -0.12080028205264
C            4.63989811771566       -2.45159021479649       -0.60427913399367
C            4.36399211140412       -2.97126386468763       -1.87725483580540
C            5.11064807301671       -4.13364531105805       -2.41219574207966
C            5.11342583956888       -5.37446020288250       -1.71985464443882
C            4.37555708367717       -5.55516641730149       -0.52522530870316
C            4.36710325925274       -6.74688639578172        0.13272797090702
C            5.09279584243978       -7.83480813737868       -0.36631575360112
C            5.80378096158327       -7.71205202450523       -1.51922011020873
C            5.83443942685687       -6.49111668848655       -2.24019638332632
C            6.54331205767072       -6.38205396200684       -3.45639319901789
C            7.23339177185042       -7.48114869358382       -3.96803379425660
C            7.83687688953822       -8.44581746604048       -4.42242862064121
C            8.52374377813877       -9.55712651261428       -4.94277641960174
C            8.00091126580211      -10.84056585039214       -4.80964542214078
C            8.67154338705440      -11.93103626554601       -5.32157834819945
C            9.87529579543427      -11.75864155028569       -5.97462699590543
C           10.40769606805179      -10.49290119446099       -6.11487228466764
C            9.73893973781031       -9.40089478760273       -5.60371909321308
C            6.54213608745798       -5.15268223564588       -4.16337398283300
C            7.23810815993994       -5.02157470712036       -5.38014920108354
C            7.25433199508075       -3.81437481630147       -6.05558036266297
C            7.91726037484398       -3.50814071815868       -7.30406698643549
C            7.76065976249375       -2.23029189060921       -7.70847267351880
C            8.31713794312207       -1.65111588186413       -8.94723024479005
S            6.77933399986860       -1.31907201838696       -6.56977598103394
C            6.57413283621563       -2.70295765954860       -5.51636589670227
C            5.88578627658143       -2.80071600214889       -4.33664831635715
C            5.83140206841487       -4.02124847064589       -3.63597000984859
C            3.36151909084127       -2.34485536847693       -2.63242028881010
C            2.67802413252099       -1.26124929878829       -2.14973440436701
H            0.91965814688891        1.81916283913789       -0.61286794437013
H            0.54467843992277        0.25328699121466       -1.35695424845239
H            1.80420036071366        1.31310692991429       -2.06406222209285
H            4.17644655148512       -0.97514916641094        0.85521340718595
H            5.41636645377843       -2.90816809277180       -0.01506382891613
H            3.79879027135020       -4.73324085472704       -0.14075584464308
H            3.79712961421270       -6.85785463338755        1.04069515317453
H            5.07955941951368       -8.77314268231702        0.16352988418480
H            6.35208791072148       -8.55403250463288       -1.90404510174598
H            7.06113159541437      -10.97004874647969       -4.30032822718016
H            8.25495920452336      -12.91897955235182       -5.21181890856965
H           10.39856584943408      -12.61158038103055       -6.37510070269646
H           11.34760182001676      -10.35813126273922       -6.62481902572229
H           10.15139711139503       -8.41208429221708       -5.71061515637605
H            7.76633560010773       -5.86256435722653       -5.78887708136131
H            8.48366777118272       -4.23873455164629       -7.85715728393770
H            9.17778126211222       -2.22187492111647       -9.29855905362798
H            8.64099257756238       -0.62305997341842       -8.78180350465118
H            7.56909123378576       -1.64507066551628       -9.74082321165913
H            5.39295637887146       -1.92956688821568       -3.94844125279103
H            3.12528013777429       -2.74216845731385       -3.60468037400275
H            1.91354513374372       -0.80890296900456       -2.75447335074783
