24
 energy: -2.469955989017 gnorm: 0.000561563066 xtb: 6.5.0 (97a52f5)
C            0.44802386127932        0.33052320271429       -1.63013490850823
C            1.59131882877218        0.64602739930526       -1.16459444542887
C            2.40619714027653       -0.09053231128281       -0.24419420148179
C            3.61645046941708        0.42751946077975        0.11058188373160
C            4.49499350105512       -0.10602513813325        0.94339616368166
C            5.68242859643185        0.42476149456938        1.27342433014677
C            6.28724375530364       -0.38419474602956        2.13777820263347
C            6.66437904247776       -6.89451077422506        6.14502173779312
C            5.47647861572676       -6.83264490314691        5.67326529591602
C            4.99396102625984       -5.89741619887128        4.80317618966307
O            3.75486903598727       -6.05152690837262        4.47629702020776
C            1.99162989231603       -1.24295854391296        0.24720496694119
O           -0.19970401974683       -0.71185927496033       -1.36608916538787
O            7.85993858305361       -9.88935123269175        6.35062867701999
C           10.04713196758700       -3.51245909368404        4.49639743519484
O           10.69784135190798       -0.09660894694741        4.01950750293643
H           -0.54215762178878        4.80500533887127       -1.81284379053711
H           -2.18108154034778       -0.90485045796314        1.69945840968579
H            3.53885138500579        4.51489445126896       -2.78050212805882
H            5.54931211570821        2.14513164657699        1.87768872170888
H            6.71530758337386        0.90623741596858       -0.15370529138525
H            3.57242259936289       -6.92538321556809        4.03178920158171
H            9.84930572577718       -7.29936465526680        1.94175154087873
H            9.25025810427486       -4.29308400860289        8.97401665143667
