50
 energy: -10.765452807128 gnorm: 0.000975963888 xtb: 6.5.0 (97a52f5)
C            1.36479493576078        1.26839245176450       -0.26967690738696
O            2.43578456766788        0.37934369427556       -0.03980080358692
C            3.03961691923942       -0.11595623250167       -1.19210631947209
C            4.10586552886604       -1.01399758494777       -1.03441990797584
C            4.75175062161006       -1.54912100645586       -2.11575254739309
C            4.36904933555145       -1.21747537479710       -3.42312273317257
C            5.06357606667218       -1.79884119798358       -4.59691766373876
C            5.09267796757257       -3.20649103336830       -4.79299389871548
C            4.43627557819525       -4.09081600030947       -3.90281961987940
C            4.45935824166103       -5.43811070656025       -4.09374923142258
C            5.13580032758222       -5.98478931346253       -5.19077584899562
C            5.76704752111000       -5.17202118792200       -6.07983631690487
C            5.76324600835709       -3.76274427650362       -5.92109024673352
C            6.39711177662006       -2.91988409889096       -6.86195026874627
C            7.04855523180440       -3.46938557645514       -7.96975307573573
C            7.62181581271444       -3.94132005293231       -8.94347155438739
C            8.27900007047872       -4.48693834382539      -10.06193714864358
C            8.11101505858644       -5.82617863674548      -10.40221917721942
C            8.75259375697618       -6.35977265317544      -11.49984552002887
C            9.57267034387795       -5.56554961590453      -12.27557588600242
C            9.75058138465912       -4.23575226780946      -11.95140227015624
C            9.10998062630790       -3.69997275865870      -10.85421380024117
C            6.36815866392136       -1.51923832068945       -6.67548351822720
C            6.99978067468468       -0.64379552791834       -7.59516930132479
C            6.99703616850647        0.70274515478331       -7.40464426014370
C            6.36721208052021        1.25415286957395       -6.28246179069971
C            5.74465446723508        0.44882932014538       -5.37906301504900
C            5.70844370209593       -0.95715794736175       -5.54374473906565
C            3.30439550022705       -0.31863461367001       -3.58205600765916
C            2.65805042892535        0.21768121748568       -2.50044829209614
H            0.96338609135082        1.58970901628108        0.69241943355858
H            0.57464899812757        0.76572636812201       -0.82926111247841
H            1.71699466734405        2.14594248704165       -0.81364986891803
H            4.40667153482311       -1.27339930082520       -0.03489103152116
H            5.57595691380007       -2.22679068316483       -1.97350036313819
H            3.89928390505216       -3.68196110962111       -3.06579481573638
H            3.95331256568145       -6.09030584888147       -3.40079577448528
H            5.14922095972777       -7.05326752487292       -5.33111207619705
H            6.27896657066193       -5.59612734427676       -6.92582667526598
H            7.46994843190938       -6.44202279274314       -9.79469975117148
H            8.61288250877892       -7.39816301024859      -11.75260818112269
H           10.07319069270443       -5.98326680135274      -13.13387858712172
H           10.39054285902985       -3.61502780239065      -12.55702896868613
H            9.24576169172342       -2.66300037149538      -10.59823281165256
H            7.49156484042098       -1.06370738585171       -8.45507112088904
H            7.48517143454682        1.35013829919139       -8.11461707570994
H            6.37994461998388        2.32180594217930       -6.13542985744756
H            5.27832983189953        0.88301079117413       -4.51289691499247
H            2.98990477761361       -0.06401606010725       -4.57970106261207
H            1.84482673680263        0.90207275272640       -2.65893171358370
