68
 energy: -13.913223815118 gnorm: 0.000325096790 xtb: 6.5.0 (97a52f5)
C           -0.82687127725808        5.27633071849650       -3.15200585099691
O            0.44119226092372        5.84362263875071       -3.38875986313682
C            1.32763385922399        5.76018096474452       -2.32496962671375
C            2.63884631626878        6.21406953969564       -2.53495277553875
C            3.57967625493768        6.13942828491711       -1.54671356924310
C            3.26981681536309        5.62124678213172       -0.28477906817004
C            4.28826337308429        5.48387167228727        0.73966074387441
C            4.09014560923978        5.42343531865397        2.18272662454109
C            2.98089031920077        5.66967547984317        2.98989417589438
C            3.10958590243647        5.55115259667803        4.35624079146142
C            4.32516213695640        5.20011788448028        4.93582643790342
C            5.43891196648398        4.97276303305129        4.15871159865768
C            5.32336450842493        5.09344784684879        2.77858475291210
C            6.29003478083129        4.95546769387545        1.70950333361020
N            5.60205900285649        5.23743302300028        0.54465591037065
B            6.38524984090608        5.24019903901403       -0.77564132644459
F            6.49361229764277        6.54555313979667       -1.23304068657806
F            5.73960904878376        4.42304154494745       -1.69161580859472
N            7.80723043020830        4.69068442297185       -0.57677970011911
C            8.51504594292969        4.55253665567923       -1.70683370074957
C            9.74409467865748        3.94218244094574       -1.68316877423303
C           10.61851623383348        3.58498345747305       -2.78033566799846
C           10.56697128326721        3.86727318895869       -4.14056274783874
C           11.58360301096651        3.40843748428500       -4.94792506125199
C           12.64613008691082        2.68405232911330       -4.41591850013743
C           12.70639873322847        2.39372232326340       -3.07068096843116
C           11.67695105620413        2.82974296178011       -2.23826406912407
C           11.45603793156945        2.70989738753884       -0.80209490376476
C           12.19032033483165        1.88102791389348        0.13546953943137
C           12.22154709642809        2.18689061216708        1.50019982370568
C           12.86140852228403        1.37672278873275        2.39556061912707
C           13.50065376761599        0.19825867274240        1.98072405860434
O           14.10173534944767       -0.58395737034819        2.95604826902719
C           14.63400116666069       -1.80454079275156        2.49482947441835
C           13.47323164810752       -0.10945944777208        0.61142193675780
C           12.83646175314072        0.70890046286298       -0.28124896060527
N           10.33195030478910        3.41520807628026       -0.54900524024760
B            9.66272070242574        3.68790351197683        0.80566167043949
F           10.45727407271327        4.56198094221118        1.53333475129898
F            9.47254007110530        2.48606868996200        1.47128002010746
N            8.28520769479773        4.34574254920403        0.62111501063903
C            7.58840544564455        4.51237723172802        1.75432780225492
C            1.95768434286918        5.17678890592118       -0.07074335351033
C            1.01322353301170        5.24261110474809       -1.05857431528185
H           -1.41441501750459        5.35560518813951       -4.06783895542913
H           -1.33474754793945        5.82203248154644       -2.35551187712604
H           -0.71800377045990        4.22233440826014       -2.89117535277127
H            2.89124559014422        6.60453530307718       -3.50481990318576
H            4.59009568269006        6.45402067258219       -1.73490539378030
H            2.05024222495343        5.98159990187913        2.55171267374071
H            2.25707787638370        5.74007632888938        4.98771246532463
H            4.39806443369630        5.11484597393450        6.00758271165569
H            6.38565556401019        4.71631312010299        4.60009758703710
H            8.07245195175695        4.87046114925495       -2.63249545147994
H            9.75032182737587        4.44096538626614       -4.54158228807154
H           11.56154632857378        3.62184472339673       -6.00394750022360
H           13.43791627362713        2.35088165958434       -5.06652766817454
H           13.55082537452721        1.87046750097879       -2.66011582063841
H           11.70321262626433        3.06585545743632        1.83802126501615
H           12.87023912859676        1.61637595133297        3.44403106197209
H           15.03120170788314       -2.35095353111623        3.35153704476493
H           15.44333918877914       -1.61317154714609        1.78881096027205
H           13.84646567536048       -2.39950986915355        2.02940885262114
H           13.94793260089379       -1.00621478334552        0.25778106420313
H           12.78041973274247        0.42295697013168       -1.31623874208231
H            8.04550853290169        4.23074763546173        2.68465978027226
H            1.70808229063993        4.72517316659394        0.87260083694396
H            0.02064351414981        4.88055304711883       -0.86306015728673
