107
 energy: -21.677551950430 gnorm: 0.000885654806 xtb: 6.5.0 (97a52f5)
C            1.07450648547115       -0.59576614640311        0.44819542809999
O            2.05882899237072        0.34717907451835        0.08759957933416
C            2.82555424687722        0.82484164592524        1.14627609847695
C            3.83079406720352        1.75764721318898        0.85190173699409
C            4.63121937616620        2.27480973063108        1.83259477217778
C            4.47735507658848        1.89030669419484        3.17498274904073
C            5.34099839641937        2.44043360899584        4.23548377444826
C            5.97431121282699        1.55225421649411        5.15885847878265
N            6.67668013045364        1.87953626549148        6.26667196283181
C            7.01102734437389        0.71194882785659        6.86144478140511
C            7.63347417242669        0.53855934897422        8.13582688039538
C            7.74601385522156       -0.81838248432589        8.71363512777496
C            8.42001724024578       -1.84737332699406        8.03446292422968
C            8.52059765076921       -3.10076353657280        8.57137336599418
C            7.95606676412841       -3.40834862281046        9.81809017348485
O            8.10437243359875       -4.70942677596391       10.28905025921383
C            7.50975062231610       -4.95577210070251       11.54340505194026
C            7.28357961375816       -2.38311689343690       10.49974512412164
C            7.18270430828033       -1.12856352370100        9.96335135228561
C            8.12834437448288        1.65139569841600        8.86952341746855
C            8.65643404702938        1.58807128668394       10.17726235514374
C            9.11864009540841        2.82787517338979       10.51253440018246
C            8.92749099136628        3.68780584359003        9.40788386668330
N            8.29190873288973        2.95038583080921        8.43085902557003
C            9.34192545417789        5.04960070112352        9.34046811558513
C            9.97736755741935        5.66167788672038       10.52108331786504
C            9.53090604373851        6.89603293241159       11.01908498946216
C           10.08837062346346        7.45242841533433       12.13687911858073
C           11.12938623869880        6.81501362452392       12.82664625694935
O           11.64309091832071        7.45343247458751       13.95191346070928
C           12.69828282382039        6.76900677344892       14.58844569270355
C           11.58337410984022        5.58520013359942       12.32848216441301
C           11.02544586582257        5.02906841763519       11.20932818848270
C            9.06556542596277        5.84126981318195        8.18609700240647
N            8.14914500555019        5.57158159762441        7.23365442590008
C            8.03171670430083        6.69291032342794        6.47569259948287
C            7.11795602673089        6.92753757156048        5.40745531773471
C            7.03152140693170        8.27609839277241        4.80270761341797
C            8.15648163464851        8.89754996597511        4.23660902906093
C            8.06876790086963       10.14141747011315        3.67486286053346
C            6.85446846838687       10.84147120488574        3.63936707247854
O            6.85520767754545       12.10260931757283        3.04822961235949
C            5.60395522761189       12.75193894340435        3.03791158629763
C            5.72806526178729       10.22173848416866        4.19946646864263
C            5.81525415369294        8.97713043789109        4.76212839172906
C            6.31062880703275        5.88197209277875        4.87896669095099
C            5.38089131197904        6.03635150924650        3.82688210508080
C            4.89682625777603        4.80281670815070        3.49888675134874
C            5.53162397386327        3.84528707915652        4.32126703114475
N            6.36755119111475        4.53688723956634        5.17607901619267
C            8.92258501058533        7.69653935270495        6.93074802789743
C            9.63553944597111        7.16395484636323        7.96416098042516
N           10.78991816289211        7.74783429576980        8.53454973572055
C           12.05810091191506        6.99319546978323        8.59593994898831
C           12.97808764961616        7.56506141706592        9.67372668970147
O           13.18152904300862        8.96271554572524        9.50035546509234
C           11.95631615232599        9.68663737246276        9.51237700333376
C           11.00793199645626        9.19802828709840        8.41798885640174
C            6.53407501947550       -0.39069450797252        6.08909532450260
C            5.90204471655870        0.13199494120509        5.02241028979723
C            3.46686455323592        0.95843009564366        3.46743990563035
C            2.66636552281177        0.44092698479799        2.48593558597847
H            0.54049126950914       -0.90246152343425       -0.45221580298653
H            0.36417885260852       -0.14667458338313        1.14385397567793
H            1.54449965124107       -1.47301032813364        0.89530175341428
H            3.96178264676246        2.05402596460934       -0.17363028367968
H            5.41457731804252        2.96762375914351        1.57800734588294
H            8.88016509747500       -1.62753628604656        7.08653474166601
H            9.04163852878023       -3.88067096563186        8.04513818721776
H            7.68380913800587       -5.99851393762582       11.81243271763199
H            6.43437838976673       -4.78095326549875       11.48624597310878
H            7.96185117182917       -4.31564787983207       12.30237563718713
H            6.83734895077024       -2.58362160795277       11.45648828498285
H            6.64076250132695       -0.36099820800007       10.48859432201584
H            8.70165941530012        0.71099668517387       10.79990325313848
H            9.54924450061434        3.09716857032946       11.46164797729966
H            7.98723788105098        3.31007525327565        7.51872299886788
H            8.72881195003240        7.39956565339085       10.50802363186938
H            9.73620796873943        8.39717942796845       12.51094803187341
H           13.02392309922270        7.35432842453811       15.44943831934985
H           13.53769752323753        6.65608377592041       13.90080737126176
H           12.35362108983584        5.79354189146247       14.93467995396201
H           12.38867864842811        5.07456237422000       12.82374068690288
H           11.41573146782228        4.10407442163297       10.82107042848787
H            9.09254368482777        8.36620604779963        4.22564441730425
H            8.93553734510635       10.60756374670727        3.24103296335033
H            5.71885685614118       13.72083819594084        2.54999271052028
H            5.25813024188152       12.91065227390157        4.06032022878675
H            4.88079362535832       12.15820980873294        2.47698661071331
H            4.78178455482923       10.73083409887766        4.19079023398887
H            4.94445516681222        8.52335565657379        5.20322230547737
H            5.12055992447577        6.96356656362362        3.34537558849160
H            4.16165363469885        4.59665605154323        2.73955557643996
H            6.96286215979080        4.11226877031089        5.89670862254633
H            9.07201134161182        8.66940119060703        6.49984236976987
H           12.53766234121810        7.06199055680936        7.61529432859975
H           11.84242212597591        5.93380121253062        8.76500359295530
H           13.96385591309673        7.08211411629962        9.66791087750350
H           12.55177583384937        7.41643094875976       10.67118453802594
H           12.19836567709032       10.75126240364018        9.39803090733797
H           11.50519100948095        9.56159671278365       10.50348469691311
H           11.42789323000145        9.40503198885292        7.42952921363203
H           10.04074015265629        9.70893418942290        8.47334441618843
H            6.63618659115207       -1.43703019913818        6.32270218572565
H            5.43154204648040       -0.41735238447900        4.22398904828043
H            3.31322826065050        0.67072197871241        4.49333019281147
H            1.90308673579885       -0.26820220464988        2.74905949041922
