84
 energy: -16.659590816445 gnorm: 0.000995558632 xtb: 6.5.0 (97a52f5)
C            2.50489980090664        0.44585866062580       -0.90007029578140
O            2.68282606595086        1.84208084191212       -0.98789121274010
C            3.38519995884641        2.28444548484495       -2.10609514750456
C            3.86299694017469        1.43737137401839       -3.10400690054135
C            4.58367232302482        1.92002301572408       -4.16947308377348
C            4.87935212597606        3.27700191780077       -4.28773306159946
C            5.65869480918641        3.77443582326754       -5.41442077309121
C            5.81141486721978        2.99716653957750       -6.59453598205769
N            4.80869197461188        2.28848346956757       -7.14536680664955
C            4.92041750032881        2.31788432168538       -8.51325463317521
C            3.82139789752551        2.39165233876861       -9.35623087706410
C            3.71867537153801        3.42421381781770      -10.35140914500305
C            2.97061609589918        3.42443408481208      -11.53724949755525
C            3.11000553572182        4.66505958042785      -12.12018088496435
C            3.90561816707904        5.46346921371755      -11.28065852702878
N            4.27098794831320        4.68391112351777      -10.21467964878243
C            4.28973541946785        6.82951846601792      -11.49819304301789
C            3.88606489120311        7.47300671374357      -12.77320132219186
C            4.83320319058292        7.91102120933629      -13.69978906080292
C            4.44067875545693        8.50195818307184      -14.87404166586975
C            3.09705577154851        8.68550793004637      -15.19257876892521
O            2.83767265191217        9.28686472170463      -16.42629705092339
C            1.48408109150750        9.41799642979572      -16.76764750801502
C            2.11027342236968        8.24380742101720      -14.26162327407151
O            0.75023205475504        8.43261761038545      -14.55416600422628
C           -0.13015883870320        7.55024169237328      -13.87103385040750
C           -1.51945158020823        7.62451609022744      -14.45126582988694
O           -2.20741798405185        6.62742771964600      -14.46162501999423
O           -1.89364967917650        8.84421874610099      -14.90037110830030
C            2.53286915694649        7.64925009813289      -13.08536983762867
C            4.99503507698210        7.57268033823776      -10.53494590219584
N            5.35347823269793        7.18807031815353       -9.30100044055953
C            5.92156474078059        8.23145874460174       -8.62682407032654
C            6.38172888292116        8.26648343891998       -7.33951744170572
C            6.37714045390086        7.19778704785816       -6.40920242163123
C            6.81897447702301        7.24268850744198       -5.07653770135063
C            6.62028107244223        6.00069584865391       -4.51324422241335
C            6.06870194866256        5.16685629246553       -5.49847033125980
N            5.92696999235521        5.92562171925441       -6.64451768623343
C            5.97171939395105        9.46790411249381       -9.47806101823802
C            5.35092533780681        9.01437211664908      -10.78710172407171
C            6.29602292663254        2.78511671895352       -8.91527183226128
C            6.90179730050923        3.26254877424241       -7.60382361222979
C            4.38757133423877        4.13499457145886       -3.30155141636958
C            3.64266485822177        3.68105236790006       -2.22922305297761
O            3.19330333436073        4.64592996094850       -1.30929209885527
C            1.97462760257194        4.32721441126451       -0.66241040861401
C            1.47671078028669        5.47527863894048        0.17872566477144
O            0.41799986842459        5.35186444622792        0.75489831160639
O            2.27148957679070        6.56964406467458        0.22824982484687
H            3.47625384064669       -0.05045101065626       -0.87053723093843
H            1.91343695873724        0.09323370467785       -1.74638481906905
H            1.96718840445167        0.22616998541180        0.02341089636942
H            3.66667562382322        0.38273495398303       -3.04427584579230
H            4.92940076110207        1.24730884875031       -4.93438036638380
H            2.91886334629571        1.87172922860560       -9.07723347841042
H            2.40366654595037        2.59380119427019      -11.92336809446426
H            2.67333143130017        4.97694333961047      -13.05388441715360
H            4.76274408103052        5.05456987435512       -9.39814630432964
H            5.87778240709063        7.75462879416711      -13.49417394288667
H            5.17520212485208        8.83293826924708      -15.58684098243248
H            1.41089954047667        9.84813418362089      -17.76772088505438
H            0.99928585019984       10.07750700103331      -16.04700889272477
H            1.01069262816720        8.43470760066766      -16.75346318462837
H           -0.15789578598811        7.82669549523009      -12.81377627915281
H            0.25525351295688        6.53117593056302      -13.96377139450309
H           -1.15483537600549        9.47683823970919      -14.78016570999561
H            1.80942442465876        7.32989556836736      -12.36019920028165
H            6.78108986155561        9.20090791131223       -6.98762597261662
H            7.23005259716105        8.10692572760598       -4.58152336966575
H            6.87597962455033        5.70633384945312       -3.50906760795021
H            5.46158791504804        5.65031366729048       -7.51313144099385
H            7.00675614918496        9.80894149733338       -9.60008352616757
H            5.40555360530560       10.28002946165894       -9.00656509992434
H            6.05407736087294        9.09762295109637      -11.62312578773018
H            4.45479374367406        9.59030225255897      -11.04683628420782
H            6.25207463389682        3.57232967837129       -9.67469088560050
H            6.85837498392634        1.95067761206142       -9.35063893986877
H            7.18133168005626        4.32057915763507       -7.62989959339876
H            7.80306646160652        2.69950118113911       -7.33440054907495
H            4.55795329491802        5.19159877441357       -3.38090056937356
H            2.13957406992608        3.45238871069988       -0.02956093272716
H            1.23754764256328        4.06437075400096       -1.42647051135182
H            3.06940315853333        6.42232853279444       -0.31791739588196
