94
 energy: -18.391472389955 gnorm: 0.000860339972 xtb: 6.5.0 (97a52f5)
C           -0.08977704538620        2.88846211397339       -1.69280852911420
O            1.09897078670073        3.24506484056909       -1.03712937287111
C            1.11828078941852        3.04074729366080        0.34068348937619
C            2.28659820803803        3.41142015419889        1.00482041422884
C            2.42800736528774        3.26810684869429        2.36042055166162
C            1.39125452764020        2.76171174126701        3.15349429550851
C            1.55451370963418        2.53773928001195        4.58553784144654
C            2.78689670017813        2.87232840259837        5.26324951724606
N            3.34476283346995        2.13902367460952        6.24513362162352
C            4.49647196049847        2.76519940631708        6.58384294828227
C            5.46429015415694        2.29383986404823        7.47027772735655
C            5.35705981252841        1.11128902659349        8.19692595622474
C            6.39537519731872        0.51621392399992        8.95110010036069
C            5.90613564956064       -0.63321979645970        9.50232576032805
C            4.54785365265279       -0.76794554320201        9.13009413310386
N            4.24202110222664        0.29895986523405        8.32411734629269
C            3.67708892021810       -1.82433895979524        9.53926133482009
C            4.21526890387656       -2.89040574470843       10.41686114121359
C            4.13096641974257       -4.23733937399648       10.05974329389251
C            4.62751462454328       -5.21332164895900       10.88615103112630
C            5.23967522250254       -4.90827634156972       12.10039511443952
O            5.70033009301850       -5.99353095765107       12.84841475159177
C            6.27322965421969       -5.68168860326868       14.09124970046410
C            5.35420176397052       -3.53664929540058       12.47825065456250
O            5.99099257591454       -3.21755502596311       13.68375843338509
C            6.34434072014889       -1.84587736837862       13.84622163315552
C            7.26102430874804       -1.63581095984633       15.04221287833704
C            7.67795270969170       -0.18375610148219       15.22885205263989
C            8.61248321567489       -0.02016650866099       16.39804071681364
O            9.78082739476146       -0.30790407144207       16.24203071039298
O            8.08270622539555        0.41986763294437       17.57175423577365
C            4.82960255889796       -2.57324552876962       11.63399094933055
C            2.31213874158499       -1.82418116311598        9.20602234762545
N            1.67329969917200       -0.92940915252355        8.44717559992990
C            0.32899879093473       -1.15125241854337        8.50020763578475
C           -0.65082414509908       -0.48436914907990        7.82571601030165
C           -0.44810505349793        0.52660193891150        6.85940363052555
C           -1.46586321573432        1.18820525585917        6.15011351949414
C           -0.87431577225260        2.03149998576646        5.24630142100767
C            0.52768649002731        1.89313781151892        5.36506189189052
N            0.75208531525508        1.00230631032431        6.39808683158506
C           -0.00801603051947       -2.27701123537402        9.43634050079978
C            1.35789919392949       -2.82077053762680        9.81412124663138
C            4.64466186203585        3.97487596930559        5.83147735288780
C            3.57872489361164        4.04636051128463        5.01464165077488
C            0.23277089989547        2.34985267393072        2.47728975170814
C            0.05835698006358        2.47567644229889        1.11159491629267
O           -1.10219068397225        2.05594508854933        0.44952635386537
C           -2.20136678093504        1.67333594158048        1.27624227331614
C           -2.12245693958567        0.22765562723066        1.75132522801673
C           -3.24212329808419       -0.13718699312078        2.71604620333210
C           -3.08743201997234       -1.53582980848559        3.25064919070963
O           -2.36342060401168       -1.70654730275594        4.20952417122207
O           -3.75426746993904       -2.53123267779582        2.60615980784181
H            0.01132182723151        3.10662442228006       -2.75692775881304
H           -0.91792827494310        3.46323913742357       -1.27537916924316
H           -0.27031489725621        1.82155941790373       -1.55189197945372
H            3.09344514316558        3.80835734425235        0.41413117866009
H            3.37586625464518        3.49869321013475        2.80785468691146
H            6.37690935419050        2.85465426712234        7.55857792776050
H            7.39862453746092        0.89594721063092        9.04948026947931
H            6.46292686101331       -1.32531793643635       10.11096962038844
H            3.33133891922619        0.48151838328354        7.88602928590754
H            3.69209129665705       -4.50108073216386        9.11346110271123
H            4.55719592235411       -6.24938850141115       10.60558769492164
H            6.55457321967166       -6.60706964451737       14.59586209064949
H            5.54658586285149       -5.13764003597277       14.69695255119204
H            7.15936120107552       -5.06523285734300       13.93245063558420
H            5.42064889642560       -1.26909089405453       13.96669906901660
H            6.83777221654648       -1.50887663543683       12.92773336392854
H            8.15265870808386       -2.26255874108353       14.92806518636126
H            6.76699939627834       -2.00451771543131       15.94779192308313
H            6.79860629355870        0.45377863155521       15.35431028473113
H            8.18205010324127        0.17778290520712       14.32779519049124
H            7.12381054159295        0.58881603845457       17.49465395478931
H            4.86458588879405       -1.53944815094107       11.91907630177002
H           -1.66870442171228       -0.77726401776438        8.01159335706145
H           -2.52422471295180        1.04572509359104        6.29335839268745
H           -1.39355929414536        2.73219512937416        4.61364416158568
H            1.67230399673640        0.67868645875861        6.71903000754196
H           -0.63930052480717       -3.02418680447373        8.94066373155600
H           -0.55831515256853       -1.89419883047738       10.30388020962001
H            1.52873468675663       -3.81734915168884        9.39234604559545
H            1.50031010381736       -2.88705540568908       10.89929213980829
H            5.44848126216757        4.68763263940025        5.91659917384702
H            3.33205263245446        4.86564174493291        4.35921973579993
H           -0.52904715748500        1.85519501917617        3.03918615873564
H           -3.10787816604062        1.82303172594413        0.67793160908688
H           -2.27914020206495        2.37914859362970        2.10980696362588
H           -1.15479491728646        0.03977114584539        2.22768507129971
H           -2.13691531402193       -0.44196672396120        0.88434222881552
H           -4.21695053248016       -0.01985728956028        2.23507729713960
H           -3.24363429364284        0.55648842361918        3.56170600415713
H           -4.27704883284964       -2.18650223163898        1.85626233285793
