96
 energy: -18.474626399604 gnorm: 0.000774145656 xtb: 6.5.0 (97a52f5)
C            2.95148750480919       -4.43463497516768        1.64186915598485
O            2.65870423158706       -3.08495201734098        1.92828527474795
C            3.18997989880765       -2.59693933078177        3.12079197951068
C            3.97233169774495       -3.36205327406210        3.98382554076419
C            4.50033206118840       -2.83410570401411        5.13774207981770
C            4.28177739336696       -1.50239737429988        5.48961881350231
C            4.85354035165377       -0.91710364280584        6.69593669683715
C            4.48372700703045        0.38427406532629        7.12404951776516
N            3.23997140066977        0.88373868434287        7.01413848769229
C            2.97292925521932        1.69566028147661        8.08934003826646
C            1.73188719851207        1.73585413166195        8.70905476212337
C            1.59743110478811        1.49008678322565       10.11900947896301
C            0.55654363378261        1.88065908803876       10.97264787773249
C            0.79899944058293        1.32551865755752       12.20974492679516
C            1.96466405679342        0.54397776145362       12.12681731775599
N            2.44144787302876        0.67176660655949       10.84773601848372
C            2.55361697074928       -0.23507886260148       13.17992769014524
C            1.91965900532231       -0.17832661403992       14.52026144618100
C            2.61132447315127        0.28622794831352       15.64013835228589
C            2.00353593434860        0.32761496378169       16.86984874631758
C            0.68235569403214       -0.07513076760607       17.05205192888705
O            0.18569143860007        0.01059325487421       18.35583186147466
C           -1.13325330611858       -0.43281355743966       18.53867176327144
C           -0.05313598335677       -0.52917729929277       15.91666225548633
O           -1.39130887470521       -0.90754894970823       16.08368164245062
C           -2.13236011133242       -1.08589010743796       14.87908693990981
C           -3.61944453347366       -1.26038378383969       15.14879668953603
C           -4.44041409921343       -1.43462356680969       13.87877874367925
C           -5.90949084573102       -1.57203008394783       14.17937613732311
O           -6.55226437557693       -0.56197709047079       14.37711574437445
O           -6.42401026333035       -2.83055033973762       14.23567524243190
C            0.58815573887344       -0.57607842631545       14.69120318548196
C            3.66396476753344       -1.07189875298320       12.96767844838844
N            4.28598046476473       -1.33442171633532       11.80848072903997
C            5.25994419402809       -2.27444191581919       11.99558153889460
C            6.09905810268283       -2.83229470390036       11.07073230374173
C            6.12099863475774       -2.56309362048082        9.67991017425882
C            6.96880329761960       -3.14399138204421        8.72221918796493
C            6.63776596861399       -2.63343975327828        7.48524356191573
C            5.58549235767394       -1.72094007139820        7.66608003172420
N            5.29238549704735       -1.69806792732388        9.01642883019554
C            5.32899136337216       -2.70952936944581       13.43123222922763
C            4.23687187403230       -1.89090660093373       14.09514333297616
C            4.25219238292275        2.06301123193041        8.79665554172759
C            5.28411251562085        1.15372587502203        8.14762799362381
C            3.47556997875049       -0.73986596101437        4.64218932117259
C            2.92510922730941       -1.24209005644764        3.47853788607530
O            2.13493317695675       -0.35683766863197        2.72856490815078
C            1.25578981093866       -0.96877406906702        1.79720123979931
C            0.19573956227122       -0.00613926791891        1.28489597296850
C           -0.76729452841888       -0.65036061270235        0.29798160277875
C           -1.81309979705598        0.32375113725585       -0.17563373355772
O           -2.77407496711474        0.52592025553620        0.53726538929485
O           -1.60245087975125        0.94031833434863       -1.37031916478632
H            2.54929250060792       -5.07684325281505        2.42658025429532
H            4.02984525728321       -4.56860379119829        1.54653223749422
H            2.47834788238496       -4.69613649276713        0.69446327530616
H            4.17449008265751       -4.38975644259023        3.74406905051779
H            5.08286449157697       -3.46090123267377        5.78740728695667
H            0.84629107406367        1.64889017290387        8.09995532762811
H           -0.27484721944691        2.51060800816613       10.70365477194598
H            0.18934960100011        1.45324765114794       13.08829044537902
H            3.21856957788289        0.11289813564071       10.48731098029736
H            3.62108309613203        0.63870858006205       15.52319551998942
H            2.54361986577615        0.68253256663710       17.72977702742138
H           -1.39343334595181       -0.35118449269424       19.59495032195578
H           -1.21124949698624       -1.47344303205667       18.21947514920247
H           -1.80607462893383        0.18830942249756       17.94529476782420
H           -1.73262755938401       -1.96510429265297       14.36169320101182
H           -1.96387366217561       -0.21074025594742       14.24156636776491
H           -3.98875819821371       -0.39496136661955       15.71047275027317
H           -3.76942614480533       -2.11763982614843       15.81415276190708
H           -4.08817337756979       -2.30041829386585       13.31140789024936
H           -4.29893763436217       -0.57119090121273       13.22208632692516
H           -5.74216573231215       -3.50758708809365       14.05893801491074
H            0.06711996969316       -0.94627935104305       13.82938551248941
H            6.80534034417043       -3.56146418082064       11.42554049869917
H            7.73984177702338       -3.86854426173404        8.92551250777764
H            7.12702402460934       -2.85678909516384        6.55189032194207
H            4.51296207022268       -1.21388242367320        9.46936797279629
H            6.32183051846942       -2.50095346519602       13.84750026554880
H            5.15229837086488       -3.78858364122880       13.51404323353449
H            4.63657155273205       -1.24204958910523       14.88194810897630
H            3.45822768282425       -2.51869669240043       14.54447430265972
H            4.17459322080226        1.91459554882521        9.87857944508531
H            4.47513253767353        3.12412060635672        8.63389120130251
H            5.76731281084033        0.48705726770954        8.86902475567635
H            6.08065900176368        1.71891745209000        7.64956378741667
H            3.23048999184622        0.26879419271371        4.91248382765857
H            0.79222221572598       -1.83211401720464        2.28907197749362
H            1.86809093523386       -1.35399056282502        0.97330547715428
H            0.68420307911351        0.85945337862632        0.82400727844186
H           -0.36326910579107        0.40118179866040        2.13498615629302
H           -1.27047709908410       -1.50020981050215        0.76835887936910
H           -0.22119992852637       -1.06316818990544       -0.55457695882746
H           -0.76650437566551        0.64988141682438       -1.78423594225369
