34
 energy: -7.200949326132 gnorm: 0.000782036249 xtb: 6.5.0 (97a52f5)
C            1.35428513534225       -0.55384214109434       -0.24636462876824
C            2.36385061439292        0.27674295403878       -0.02804604180840
C            2.96370615238363        0.56384322142308        1.26486488681153
C            3.99247808949897        1.44469850183180        1.33421493990136
C            4.61108932437907        1.76579599251940        2.56354184740678
C            5.67102935135479        2.67832003832537        2.66103803824579
C            6.23796253584453        2.95919186634302        3.86977825002693
C            5.78318985367259        2.34395997640023        5.05037412450580
O            6.42022701911088        2.70254177289744        6.23699329152214
C            6.07884693530043        2.07486036348153        7.41528807581213
O            5.27296694526391        1.17631616644476        7.52643451324278
C            6.78372653828183        2.57517259851503        8.62213941142166
C            6.53495559211473        2.00864670387083        9.86248108908529
C            7.18622850020818        2.47110209787234       10.98441536774507
C            8.09373613280271        3.50494294497517       10.87911824148570
C            8.34904801446050        4.07542923528171        9.64899095713852
C            7.69817227519062        3.61268576892097        8.52691505941531
C            4.73885033712428        1.44137015664747        4.95028857489067
C            4.13752581897210        1.14003475968737        3.73208396720766
O            3.09157265326248        0.23643369946520        3.70585349220194
C            2.48596098113573       -0.07117425805449        2.50363862132129
O            1.55812746065750       -0.86420037535415        2.45456320197772
H            0.95946939787867       -0.71876516575581       -1.22941868196307
H            0.89838713904054       -1.08950453215313        0.56076605180019
H            2.79062861099471        0.79369252881364       -0.87231448119146
H            4.35042452306704        1.91645888237878        0.43687926823244
H            6.03368589174672        3.15695668049444        1.76770823840580
H            7.04932011976447        3.66121410236049        3.94455985951810
H            5.82465991547277        1.20210729824387        9.92982184243680
H            6.98590683835591        2.02483694073483       11.94482581674405
H            8.60304163468663        3.86746739930639       11.75691369662294
H            9.05732033972157        4.88360288806267        9.56614634201812
H            7.88927136700742        4.04931585227467        7.56156279884238
H            4.37100796150847        0.95019508080073        5.83035396774811
