39
 energy: -7.677214268918 gnorm: 0.000870170051 xtb: 6.5.0 (97a52f5)
C            1.13123910038140       -0.42929680831249       -0.52675837011891
O            2.13826499691957        0.12144348970811        0.28877958678018
C            2.97616387208602       -0.81036518299061        0.90768487596796
C            3.98322817055578       -0.31403381377780        1.74016643346847
C            4.85399752215808       -1.15678463025237        2.38301885594401
C            4.76132344340148       -2.53864654338998        2.22064593249542
C            5.69003869043506       -3.43798959710486        2.91580396975010
C            6.13749038966398       -3.34176483955997        4.20583656690572
C            7.02190286133323       -4.42305116322873        4.40927921764290
C            7.73334656109488       -4.73917698665924        5.65057121469346
C            8.65271413554582       -5.78375644737190        5.66842607942004
C            9.33611356120706       -6.10164982305868        6.81943168516086
C            9.11221052950655       -5.38974208724469        7.98052565664887
C            9.88809326025615       -5.72204246696091        9.25038144816881
F           10.25106762215584       -7.01659837602157        9.21522377218863
F           10.97723622440911       -4.93529422156085        9.29947150100651
F            9.09952915515853       -5.49045546229950       10.31510010238302
C            8.20390149178213       -4.35049383087907        7.97717722207068
C            7.51827774011357       -4.02683282410306        6.82857057636487
N            7.13325522921252       -5.14534554420642        3.29777926367530
N            6.34558104827881       -4.56244684581944        2.40943622383236
C            6.25040753523687       -5.04033891509824        1.03079172544235
C            3.75253702555155       -3.03814906011835        1.39815969886324
C            2.87935807429407       -2.19632623563898        0.75504336260844
H            0.54475980477642        0.39083000691287       -0.94410414274677
H            0.47761088340566       -1.06550978936182        0.07211783599031
H            1.58467402565490       -0.99440067270067       -1.34256957057734
H            4.05973521203451        0.75199764244956        1.86330608035162
H            5.62843435098685       -0.75604413920008        3.01383969332838
H            5.85351893501578       -2.58848259700964        4.91986458446926
H            8.82117936254663       -6.33997905710023        4.76271210676802
H           10.05031574624290       -6.90766474851323        6.83234347337648
H            8.03911863081293       -3.80228112374247        8.88963744114657
H            6.80505178546022       -3.22207401609704        6.84026582206915
H            7.16745504206696       -5.56051468411433        0.76641372103797
H            6.11276833616641       -4.20507970880278        0.34839631235453
H            5.41712233018325       -5.73140882139026        0.93310263509770
H            3.64852493684842       -4.10360586280989        1.29102250716275
H            2.10909237706746       -2.61232421256960        0.13207489881042
