43
 energy: -8.739049246764 gnorm: 0.000635848851 xtb: 6.5.0 (97a52f5)
C            1.43702825414348       -0.05971513657443        0.47314358776643
O            2.27928079970503        0.06092791393171       -0.65000171836038
C            2.99213542286630        1.25983680963594       -0.72505208376772
C            3.83896748784619        1.44139660149279       -1.82297746463959
C            4.57513211914432        2.58895359482824       -1.96924389365425
C            4.50908506426501        3.61112151570349       -1.02525506022931
C            5.31229546076247        4.83047119521622       -1.21905651892517
C            5.61431144370071        5.64706665417871       -0.13946986918482
C            6.36725994373250        6.79055038405579       -0.30627439573762
C            6.68740639660105        7.64470832670939        0.86345935531381
C            7.33460180218233        7.11319955612631        1.97586918169071
C            7.61233882813541        7.89938920774241        3.07164029736757
C            7.25041385855894        9.23904166174857        3.09602711361849
C            7.54009467998714       10.09458254591453        4.28006062477581
C            6.60161542166273        9.76979890812791        1.99107761027724
C            6.32321891218807        8.98818516010984        0.89240409600336
C            6.81135764154262        7.08803383261711       -1.60018189117679
C            7.64559038718354        8.18913626720124       -1.80714953355099
N            8.34374091187847        9.10237115825624       -1.97522881687370
C            6.45673267809463        6.22001961025198       -2.65502886008607
O            6.84676150866349        6.46467038443247       -3.98914145231530
C            6.75562407195571        7.80961874918115       -4.41632866609773
N            5.73565393291157        5.10307306827594       -2.45497025423850
C            3.65714755202391        3.43873552951638        0.06709094384237
C            2.91795138569249        2.29180416066084        0.21628041592990
H            0.93371082630529       -1.02635726306663        0.42555226209343
H            0.68543254346095        0.73096744421711        0.46005302186706
H            2.02879064434318       -0.01385761846746        1.38843326604502
H            3.89822410667184        0.65502387065135       -2.55439784927026
H            5.22030710593097        2.71708926579701       -2.82071224180794
H            5.28213890488421        5.38514765050297        0.84750729430901
H            7.62184727088666        6.07589129854030        1.96573382609865
H            8.11580266387534        7.47523890297443        3.92334302768083
H            8.08757444654625        9.54364889905127        5.04523877501449
H            6.61581084662506       10.45947370582796        4.72901908166081
H            8.14238925467793       10.95809320607922        3.99616511840851
H            6.31426090696388       10.80730424966965        2.00152188136820
H            5.81384343274998        9.40787746301334        0.04225492792148
H            6.59867644536499        7.82378056559914       -5.49567137150631
H            7.68609608086273        8.32912306871806       -4.18546546940194
H            5.91603063848437        8.30257466942680       -3.92415072524012
H            3.55923270125877        4.22725487247589        0.79185763983897
H            2.26976521467787        2.18992808965232        1.06728478716577
