58
 energy: -11.695885698561 gnorm: 0.000490625961 xtb: 6.5.0 (97a52f5)
C            1.11508567737808        0.05612206260636        0.80157044746151
O            2.33228357087345        0.21302653722854        0.10848905887340
C            3.08537785563426        1.32814751163468        0.48844158088444
C            4.29467526094311        1.55026301665385       -0.17947272272879
C            5.09358785904936        2.62068563757290        0.12981050927749
C            4.72715192606279        3.51646767178733        1.13689135649534
C            5.59443473940564        4.66857384718870        1.48744878149098
C            5.67906755813538        5.71717562143106        0.60194224990186
C            6.40454909098224        6.87219269652361        0.89960494982119
C            6.48969743216797        7.97884879856326       -0.06899414048173
C            5.66464627816059        8.07699946167270       -1.18938823445713
C            5.78671799436255        9.13407627769263       -2.06417350904141
C            6.72501445869124       10.13402615478785       -1.85158195518379
C            6.87010961261450       11.26043067674695       -2.81495251136357
C            7.54921603791937       10.03990933254447       -0.73976671407733
C            7.42925749973334        8.98509139520219        0.13658632203478
N            7.03703325146379        7.02196590220317        2.05742538548450
C            6.98053848890913        6.00716062809741        2.95469897586412
C            7.63069484435684        6.16862957783633        4.20147358591553
C            8.30096608036881        7.36743979801168        4.43533567305188
N            8.86322642904628        8.36791797047423        4.62344982723136
C            7.58705442249769        5.12909999891185        5.13828678287733
N            8.16607328807435        5.26390016357331        6.41356935466649
C            8.57900684072174        6.52308927254506        7.08740163182146
C            8.79696228615900        6.19466494759327        8.57509202339395
C            8.17066491950429        4.80350520394671        8.79122080573465
C            8.11872978757295        4.15969518420940        7.39764628356561
N            7.01454443139161        3.93868172691041        4.87132390089228
C            6.41710028034534        3.75372297666868        3.69623701254862
N            5.94873447655988        2.48347727647293        3.43908949371340
C            6.31036764809553        4.79056342096453        2.71209228438879
C            3.51722315832233        3.30287703009501        1.80169291795091
C            2.71464428198257        2.23570416134167        1.48685561231706
H            0.61222732931146       -0.83465168931080        0.42278511505580
H            0.47504371934370        0.92285230754981        0.63014767750863
H            1.30737074166765       -0.07375120702162        1.86755465644815
H            4.58236296949567        0.85841353738996       -0.95123130843553
H            6.01959297325503        2.77866129757730       -0.39584786468292
H            5.16516274323049        5.63134948819814       -0.33658832375690
H            4.91187127935902        7.33110366892344       -1.36899167506954
H            5.14700469877476        9.19356728354257       -2.92818492540280
H            5.91831915626440       11.49422820369086       -3.29301500461579
H            7.58764533283620       11.01012052164532       -3.59692001568613
H            7.21876741097528       12.16400493909252       -2.31390174343519
H            8.28846603068903       10.80341246413526       -0.56762155503238
H            8.06653965164413        8.92201172998818        1.00092662845125
H            7.78430685534720        7.26271561233875        6.95110640071328
H            9.48326828289851        6.91132768523229        6.60909093309312
H            8.35416958387422        6.95367054643462        9.23188080616169
H            9.86847819102795        6.16868106327347        8.80709525675907
H            7.15942825762835        4.90016432228568        9.20345078080011
H            8.74425109975438        4.19664025562406        9.50279645715822
H            7.20893181178758        3.57219894399867        7.24022480083506
H            8.97439989983557        3.50151428104575        7.21911569809137
H            6.17307115211784        1.73488102754926        4.06784818911744
H            5.70184051489516        2.15943564286275        2.52152164409347
H            3.22562080214543        3.99166949831575        2.57579196056071
H            1.79118174435663        2.09639663595837        2.01844839095170
