52
 energy: -10.479551943495 gnorm: 0.000708260178 xtb: 6.5.0 (97a52f5)
C            1.31970972141734       -0.59211605927419        0.16423597563296
O            1.95701519614315        0.64939763676746       -0.03910429390749
C            2.79090742498662        1.05868099215757        1.00675542287701
C            3.46053165034260        2.27833034822369        0.86535001571028
C            4.29898099047574        2.74472161048010        1.84590567758527
C            4.51714041200244        2.01847423628697        3.01504458698449
C            5.42924262217519        2.55436191565453        4.03968254702729
C            5.90953326642681        1.75489007341310        5.05598091845698
C            6.75978878088298        2.29780925051773        5.99732357419245
C            7.28627167087605        1.48790330101313        7.10749250991153
C            7.87324241087281        2.12598870112794        8.19950637322162
C            8.36705978042605        1.41218707358456        9.26241268548616
C            8.30226482361786        0.01538226130835        9.28322793317564
N            8.79580572275365       -0.71996605917159       10.37617411500204
C            9.41103342164569       -0.05895919010012       11.52739164029548
C            8.72538652817188       -2.18111650458210       10.41027066592406
C            7.72628004875679       -0.62461698482864        8.18084722933467
C            7.23098132589632        0.09213517893156        7.11982914505603
N            7.10939603482900        3.58156123824544        5.92972271076929
C            6.61117528464349        4.28022870138681        4.91036306423769
C            7.00904123778257        5.69611421644309        4.82789811125196
C            6.53685860568893        6.51023131537161        3.80281984823774
C            6.91005822285946        7.83400084635687        3.72744432796377
C            7.76162106727953        8.36768124453171        4.67459881619032
C            8.23953804081757        7.57313943748238        5.69788783783791
C            7.86656000870164        6.24945827503468        5.77412874055823
N            5.79121205593041        3.83402014990226        3.95928194873652
C            3.84194904297597        0.80514134774442        3.16454426764421
C            3.00144230775417        0.33550725892949        2.18554213823016
H            0.70753002328517       -0.81825537361888       -0.70973621267781
H            0.67422354976615       -0.53982721775577        1.04206915053030
H            2.06452857121493       -1.37980992988447        0.28570137967810
H            3.30248370986300        2.84488524783682       -0.03511870305486
H            4.80595096424837        3.68568984488882        1.72299623919404
H            5.62197662539022        0.72414581961884        5.11682960615684
H            7.92836236535707        3.20042833158756        8.19645482384423
H            8.80742798831159        1.93350680226932       10.09321226598139
H           10.27053087231467        0.52643204128218       11.20730320837867
H            9.75115333083616       -0.78484556153321       12.26264038579064
H            8.69000073808929        0.59891668572666       12.00840171976955
H            9.31097618906928       -2.60152119394403        9.59500059610623
H            7.69178272074295       -2.50728937485127       10.31229540628545
H            9.11519290015891       -2.57282075335149       11.34737938925032
H            7.67263207326859       -1.69823080210724        8.16470675085990
H            6.81056224346870       -0.43195336496359        6.28069361780942
H            5.87388531224427        6.08713732889807        3.06888733196360
H            6.53693637574256        8.45371375820772        2.92861758930343
H            8.05330574441584        9.40347752954036        4.61542014969464
H            8.90521218325643        7.98835244120367        6.43676501704682
H            8.23589241016101        5.62339280508660        6.56707209605625
H            3.96581676570944        0.23486525835695        4.06758664562189
H            2.49606863595042       -0.60172213543995        2.33112301277966
