36
 energy: -7.243868257700 gnorm: 0.000933258815 xtb: 6.5.0 (97a52f5)
C            1.40627887064626        0.00162666999033        0.79087781382876
O            2.11702536012626       -0.29095426059794       -0.39100708186136
C            2.70227117918135        0.81825494045387       -1.01427682193132
C            3.38333211644155        0.60190029922428       -2.21620536526907
C            3.98045466852223        1.63617482161508       -2.89237309842515
C            3.93182364912250        2.93860033277339       -2.39514516539391
C            4.56126443680304        4.04207878327467       -3.12985383959967
C            4.60129575420871        4.22100335033889       -4.48674485330153
C            5.32998348028871        5.40908049530863       -4.71779762410057
C            5.62575676536260        5.99387978292973       -6.02977386818233
C            6.40762906256903        7.14276401902266       -6.11392954759525
C            6.70165182367490        7.71065426297198       -7.33383414508011
C            6.21814441475143        7.14116329071792       -8.49496687620994
C            5.43996744229100        6.00276401951283       -8.43142567757658
C            5.14507798409054        5.43244753885700       -7.21234068482330
N            5.73753806743674        5.93709404720637       -3.56484795190799
N            5.28496156297761        5.12493630142488       -2.62032928967915
C            5.58699811563674        5.33731319071580       -1.20528571713605
C            3.25085273659536        3.15959198423753       -1.19839346964508
C            2.65059262853801        2.12597597402379       -0.52173929200408
H            0.97482746319112       -0.92316737964491        1.17580755643685
H            0.59972733960833        0.70439559134098        0.57699332008925
H            2.08199271418070        0.41463474120903        1.54072155352311
H            3.42710126905884       -0.40089125601975       -2.60256415144472
H            4.50249853507551        1.44939262155249       -3.81480794106944
H            4.15904129149215        3.57464785695231       -5.22444368546780
H            6.78119965409702        7.58128802822063       -5.20524384440371
H            7.30964984548935        8.59900179832528       -7.38177861381679
H            6.44755866309422        7.58509420386643       -9.44977389545909
H            5.06145071641422        5.55933828980742       -9.33787245362087
H            4.53598990133216        4.54724329326192       -7.16927291927010
H            6.52585363350736        5.87701612189342       -1.11132138612207
H            5.68033800160996        4.38498024454701       -0.68873730863834
H            4.79984231386521        5.92501216719262       -0.73931810990875
H            3.17948373632282        4.16318978182832       -0.81776899069792
H            2.13158480239661        2.32929405165563        0.39674342575912
