57
 energy: -12.132436988326 gnorm: 0.000440282514 xtb: 6.5.0 (97a52f5)
C            2.09862836728642        1.01699501445835       -0.99310398117713
O            2.08215792172884        0.40470284622105        0.27692639225369
C            2.93676363072021       -0.69450782674437        0.40929885542343
C            2.97381601535114       -1.34340007954304        1.64759110858761
C            3.78924306224764       -2.42639296720844        1.85694207004040
C            4.61293040101729       -2.91634339336529        0.84500736911138
C            5.47396983218254       -4.07927690873067        1.11597190467636
C            6.49350028098560       -4.43925510035125        0.25307750512580
C            7.26387767179835       -5.53206012084029        0.55431381404622
C            8.36473773667347       -5.92841728474053       -0.36493755718526
N            7.05193993958208       -6.24413539388656        1.65071867810284
C            6.05777587145091       -5.82556612523721        2.43685801608601
C            5.81736855437874       -6.59780572908226        3.66536549953288
C            6.58379141601285       -7.72217117335420        3.96357974051432
C            6.36120076720839       -8.44146346584022        5.11255184797141
C            5.36392537459673       -8.05963638297379        6.00507272132945
N            5.12706555919773       -8.81188026890536        7.20566822508517
C            4.99540772191620       -8.28190452734525        8.50698508937534
C            5.10111968110794       -6.97278547376449        8.97608975506852
C            4.93415465682459       -6.73574658989842       10.31842724866470
C            4.66600007737164       -7.78100952467376       11.20670390283024
C            4.56698732320666       -9.07773787879175       10.76306634981037
C            4.73633248971456       -9.33427148982491        9.40161518338849
C            4.70437311182379      -10.55491078015481        8.63125636161046
C            4.47632156599591      -11.88493084889142        8.98777825416712
C            4.49198769443015      -12.84296167763403        8.00289562582304
C            4.72729966853096      -12.49856300967355        6.66893111716105
C            4.95352124237993      -11.19421162586770        6.30361299449586
C            4.94903294918769      -10.20938584534293        7.29115440930624
C            4.59618644325802       -6.93685111693135        5.71005061506006
C            4.81908883261209       -6.21935635183172        4.56012857443728
N            5.25855479383930       -4.77930416559636        2.22619177361080
C            4.57108228350033       -2.27736155867963       -0.39618717011256
C            3.75596075953259       -1.19302749583725       -0.60932950538784
H            1.40723948860016        1.86063966123700       -0.98334657123098
H            1.77556641235534        0.30603092859255       -1.75478707373544
H            3.10055486894321        1.38618504790405       -1.21644943335415
H            2.34545443619972       -0.97069364623886        2.43693637727943
H            3.80568215016938       -2.91493565037087        2.81533370336515
H            6.70108220447945       -3.86957578677259       -0.63311002310765
H            9.09347893329185       -5.12425159939812       -0.46979604378338
H            7.97714618081897       -6.17029796941605       -1.35489082447620
H            8.88460077071752       -6.80641191980001        0.01774610545326
H            7.35787850692982       -8.01706548988761        3.27752711659571
H            6.96563481199255       -9.30081241703642        5.34401399652863
H            5.31887187198259       -6.17444476382016        8.28970224742979
H            5.01257651627428       -5.72882907297180       10.69408084798484
H            4.53840381225893       -7.56603887217378       12.25485841741322
H            4.36490682043378       -9.88818359955949       11.44072775936089
H            4.29057384779535      -12.14073229582133       10.01586707098466
H            4.31724081528506      -13.87443000290133        8.26107122256644
H            4.72868658128862      -13.26930679109344        5.91585556776841
H            5.12302483397120      -10.92207571401471        5.27747429671032
H            3.81431416303032       -6.64867998747600        6.39050097480212
H            4.22345010327673       -5.35258236840570        4.33433195022286
H            5.17346767757662       -2.64886988914755       -1.20557167406320
H            3.74683049464997       -0.72381348063350       -1.57614879952164
