32
 energy: -6.353957577529 gnorm: 0.000456486198 xtb: 6.5.0 (97a52f5)
C            1.32681803056286        0.50643271283321        0.44694961406345
O            1.98779131168554       -0.56946631052937       -0.17818521915167
C            2.69403611196528       -0.23357093929226       -1.33553623677206
C            3.37458153346209       -1.26042353175303       -1.99843817255712
C            4.09432260270469       -1.01918090786563       -3.14080728457891
C            4.17043003543230        0.26676813081242       -3.68149573865838
C            4.92891390087812        0.55194728740222       -4.88941742169448
C            5.58668752651323       -0.35289816291173       -5.67380793581890
C            6.25050913374015        0.22133853448490       -6.79453869472891
C            6.10215599438644        1.59348694007147       -6.87481199691462
C            6.69763763381867        2.32177348624771       -7.91557062030048
C            7.42791327031142        1.67486186239384       -8.85447983840266
C            7.60801589736285        0.24825014851710       -8.81323115340428
O            8.27359640570736       -0.33264921699233       -9.67277542031277
N            7.00398504233954       -0.45617844897909       -7.76732729772174
C            7.16118228795816       -1.89805620787197       -7.71455412469704
S            5.12151503304610        2.16249588185297       -5.54545812869616
C            3.49145586995495        1.29210851391518       -3.02028384430136
C            2.77035637396312        1.05347364955751       -1.87803619124318
H            0.81196137805460        0.12905822148536        1.33157822094412
H            0.59076197237209        0.93612601521919       -0.23400209390856
H            2.05353171936104        1.25997824258723        0.75387627802063
H            3.32029188176559       -2.25214864959729       -1.58550131807496
H            4.61079804581232       -1.82904711994452       -3.62407950555415
H            5.60971907573256       -1.40969813109473       -5.47199939972173
H            6.56540713767917        3.38917565853724       -7.95151695673622
H            7.89311679986234        2.21578793495377       -9.65844877180896
H            7.77335919303688       -2.23046236979466       -8.55094361672823
H            6.18890084578399       -2.38265848761492       -7.77771470123432
H            7.64925218591345       -2.18794824728643       -6.78621416864078
H            3.54103793559109        2.28714511641236       -3.42620482471827
H            2.25767783324203        1.86674839424355       -1.39806343594161
