28
 energy: -5.759197424443 gnorm: 0.000852422801 xtb: 6.5.0 (97a52f5)
C            1.02580007905237        0.30847576519791       -0.27309652279245
C            2.17870304221264       -0.05763241166261       -0.21897168106131
C            3.53272823598530       -0.46630794169930       -0.17318558370966
N            4.37606229889238        0.21123076225505       -1.16094323633048
C            5.68165997970898        0.06050152871254       -1.43439278620522
C            6.54947337435076       -0.84974805065439       -0.75009764465097
C            6.33435760245710       -1.74300571089486        0.31009120830543
C            7.54038775554688       -2.38814219955177        0.58513916951064
C            8.50592036210248       -1.90558694982865       -0.29047308933385
N            7.89374742158965       -0.99442834181959       -1.06990107691370
B            8.62627904426997       -0.20103969504593       -2.15979861298499
F            9.62978974347207        0.55371273348755       -1.57284629814400
F            9.13211687651519       -1.08308513048061       -3.10153689576856
N            7.62278666451075        0.73831511498949       -2.83812744231017
C            7.92651153266624        1.56654040493455       -3.85618243259874
C            6.75267611831284        2.23804317769550       -4.18325400837983
C            5.73834870812712        1.79153327064079       -3.33522669486136
C            6.28822139047009        0.83333362137163       -2.47367663886719
H            0.01048074033935        0.63001188235970       -0.32161457593940
H            3.59691543865937       -1.54611556496890       -0.34921218242647
H            3.94460289783171       -0.27012141845012        0.82316039149922
H            3.82327445979198        0.87799445650053       -1.69375708750504
H            5.41280829985792       -1.90864135867436        0.83909791477132
H            7.69905318748686       -3.13220001119047        1.34967144770656
H            9.54678996577902       -2.17932964042295       -0.35458972998753
H            8.90085522830479        1.66615655509246       -4.30681992837235
H            6.64517616021196        2.97610553129565       -4.96229025843191
H            4.71475339152436        2.12541962069926       -3.34542572436168
