25
 energy: -4.972858683096 gnorm: 0.000570826979 xtb: 6.5.0 (97a52f5)
C            1.23461702915642       -0.38545764717921        0.11950334230212
C            2.43381563721819        0.16964162233735        0.01088051263844
C            3.08239687182680        0.99360002611960        1.01772605507244
C            4.26908298555173        1.58273246409151        0.72442165758984
C            4.94971898234004        2.38833873750326        1.66360089170163
C            6.17797730521235        3.00362922130066        1.37839458940938
C            6.80637521101125        3.76951632445610        2.31510699949646
C            6.24601840035391        3.96662467127570        3.59273999021867
O            6.96112492630267        4.76018682087619        4.48639366969036
C            6.36639122267759        4.91491321485302        5.75357189010369
C            5.02832690655297        3.35995983741947        3.87292639315698
C            4.36762216244858        2.57383537637729        2.93333802672089
O            3.15669911676851        1.99340634834798        3.27052717331137
C            2.49578562725978        1.20253847639474        2.35037887433024
O            1.43071093780027        0.67233417802131        2.62974285811488
H            0.81380956092738       -0.98287667302901       -0.66506487637913
H            0.64548408533856       -0.25272804118074        1.00387908893167
H            2.98838533009364        0.01125630908264       -0.90030356704721
H            4.70894850699625        1.43676371033589       -0.24568921230840
H            6.62060049430646        2.86246429870499        0.40747974336583
H            7.74856429626176        4.24067806810426        2.09818643848514
H            7.01848735842380        5.54263911402182        6.36288249974515
H            6.26024041936251        3.94113466586433        6.23432132561380
H            5.39678924592507        5.40459482790998        5.65016544396818
H            4.56387737988287        3.48467404798999        4.83145019176764
