52
 energy: -11.294032676458 gnorm: 0.000643984673 xtb: 6.5.0 (97a52f5)
C            1.21913739254108       -0.85651624749393        0.64441795542470
O            1.81498538773101       -2.12701641263048        0.51282678420164
C            2.30001036589853       -2.41916973773604       -0.76314676334472
C            2.92623302727916       -3.65649697773788       -0.95068668163987
C            3.43775104242486       -4.01931551426960       -2.17009960787014
C            3.34764370884544       -3.16129028004738       -3.26873549256755
C            3.88925613151005       -3.52300737292375       -4.57132260803396
C            4.69409054578730       -4.58870067934605       -4.83581640725051
C            5.07947604975563       -4.71696481850105       -6.21147685108884
C            4.64431442552740       -3.64111543834203       -6.98860417017518
C            5.06299248448118       -3.47180848781435       -8.31000648010950
C            5.97286454967260       -4.34500971583675       -8.84765583879009
C            6.42688858635523       -5.43107877793861       -8.09305761202156
S            7.66004862505197       -6.59190734932146       -8.54425527639661
C            7.46970464735769       -7.49268051938015       -7.05285183739985
C            8.18827767020569       -8.62342442612496       -6.65203811360188
C            7.85734083712611       -9.26589614332042       -5.48741403325649
C            6.76087384953930       -8.82265865078299       -4.74391515955975
S            6.06888847558633       -9.52613316283550       -3.30250460882240
C            4.69776306250957       -8.43401115710861       -3.32222994287346
C            3.59487118475639       -8.50172115474886       -2.37023459499606
C            2.49192578442722       -7.65088847641502       -2.45842960162160
C            1.46556747026873       -7.72929515825078       -1.54629101279481
C            1.50068795396621       -8.65859847818857       -0.51269870336751
C            0.45203696523611       -8.73673670317461        0.41687913559845
N           -0.41499853616378       -8.80570887049980        1.18636391540011
C            2.59587280707176       -9.50992691268186       -0.42050928432266
C            3.62194303829015       -9.43192941260786       -1.33228627154851
C            4.82488854691459       -7.54669750568177       -4.34607959900743
C            6.02134779086468       -7.70014105896014       -5.12278128587248
C            6.44599767806491       -6.95397737936151       -6.27309176255257
C            5.93752840392903       -5.69689989926861       -6.81377602672564
S            3.59890386752400       -2.61088023710351       -6.03982709965011
C            2.71528993235099       -1.93086431928559       -3.08566557199945
C            2.20480028827461       -1.56362840348547       -1.86650369898961
H            0.89027113793296       -0.73341669079530        1.67720786470235
H            0.35224358367136       -0.78256888104294       -0.01371387707307
H            1.94727894641744       -0.07850372178636        0.41033696205002
H            2.99758014562252       -4.32095147232431       -0.10791207595410
H            3.90377884297586       -4.98137654610650       -2.28668797439586
H            5.09867778477783       -5.21595502151005       -4.06123718695329
H            4.70253871230936       -2.62889321699882       -8.87325318154839
H            6.35131729458756       -4.20413885121038       -9.84521746615045
H            8.99444122203776       -8.97900523454521       -7.26999229360961
H            8.39852079744106      -10.13654440553787       -5.16049230162620
H            2.44165380164737       -6.92647542797489       -3.25130084822510
H            0.61882139097710       -7.06871281458923       -1.62290553676427
H            2.62977721517887      -10.23289522890638        0.37650314704754
H            4.46513813749502      -10.09530672751952       -1.25381630611061
H            4.05154288759424       -6.84738318507042       -4.60928832368888
H            2.63677426835542       -1.26318379546939       -3.92566295348284
H            1.72758979002302       -0.60671293943299       -1.76074344056543
