56
 energy: -11.702958580106 gnorm: 0.000903757931 xtb: 6.5.0 (97a52f5)
C            0.94350243713556       -0.97438197269840       -1.10147577735219
O            1.83591946725007       -0.69041770276104       -2.15470987271284
C            2.26118261647193        0.63758041864252       -2.22172674643333
C            3.13063627811344        0.98711498610123       -3.26086770772452
C            3.59216600510714        2.27011833806419       -3.40249960811773
C            3.20819026566044        3.27393761372201       -2.50984919660876
C            3.66644792294292        4.64798217284047       -2.66203259958026
C            4.61124878276821        5.07734881012796       -3.54307582120056
C            4.83554097202626        6.49350748991230       -3.53449050890171
C            4.13997678769273        7.13604318102683       -2.50795073773719
C            4.35489676473178        8.48324565120778       -2.20934291539829
C            5.30336700625058        9.18779734153093       -2.90514077917851
C            6.00413816925618        8.57370971310576       -3.94809286268949
S            7.31071887161167        9.25760929720358       -4.89609107745593
C            7.45637135530672        7.81591210259385       -5.88268312966069
C            8.37704769382378        7.58181525739460       -6.90931993835527
C            8.31256882946122        6.42048325205286       -7.63487795504794
C            7.28434016294977        5.50772548995029       -7.38623454513364
S            6.92834659497661        4.01040090950803       -8.21469245550844
C            5.43303629588994        3.77347772564954       -7.32972151762622
C            4.52427202994459        2.65263699834309       -7.54030265436359
C            3.26868406332836        2.60031198065516       -6.93189356064944
C            2.43948253941725        1.51885063367613       -7.11113098522312
C            2.83110225231565        0.44371714624451       -7.90588532553210
C            1.97435772138085       -0.74106387937142       -8.11758959936455
C            0.64464220241218       -0.80781813113859       -7.43899925227166
O            2.33932881714250       -1.64822823387549       -8.83266155304486
C            4.07652629307501        0.49697579951973       -8.51985543388306
C            4.90619113816978        1.57780824368780       -8.34204911570992
C            5.26195315163498        4.78062860489182       -6.43053422962741
C            6.33870665830576        5.72625898986947       -6.38199662458170
C            6.48412979786545        6.87741180950646       -5.53710031369744
C            5.73671457854183        7.26296475794425       -4.34361614677600
S            3.06874950229425        6.00030749213409       -1.71990868050370
C            2.34137351014473        2.92746369666794       -1.47269230668663
C            1.87875105113550        1.64396933601768       -1.32701257096523
H            0.66855250826596       -2.02858291106060       -1.15434442824712
H            0.04185940732395       -0.36867731016891       -1.20345132091925
H            1.42665899198526       -0.78313050827814       -0.14207016571463
H            3.42562928435082        0.22074886499228       -3.95545828195158
H            4.24478248656270        2.51128727385770       -4.22221334766919
H            5.20697143127330        4.40142120478434       -4.13044529090773
H            3.80246584240288        8.93954812514451       -1.40673588234422
H            5.52118894619351       10.21259862329974       -2.65923563198348
H            9.13081005775513        8.32153590131398       -7.11609203918949
H            9.01622798818801        6.21913279715731       -8.42365411762871
H            2.94401157008992        3.41916031535397       -6.31502965881377
H            1.47778160861944        1.50164456462114       -6.62923010471760
H            0.74840825306916       -0.71337311546416       -6.35824495401198
H            0.16837032736450       -1.76538222212817       -7.64547756059862
H           -0.01792122763825       -0.02021404513063       -7.79741115403702
H            4.38200513658183       -0.33100813149756       -9.13650295192330
H            5.87113695739004        1.60263853850326       -8.81700018725400
H            4.36145368150451        4.90127018640241       -5.85543430014729
H            2.03440714724278        3.69261716153113       -0.78146683978200
H            1.21271101488739        1.41228936682359       -0.51617767688795
