41
 energy: -8.582823291030 gnorm: 0.000369864246 xtb: 6.5.0 (97a52f5)
C            1.40235238672352       -0.30469622696981       -0.68695514117000
O            2.15958598688001        0.45130510263853        0.23064152036459
C            2.75547781559696       -0.29224521498693        1.25266194038784
C            3.51772699925942        0.40124430230201        2.19924844067828
C            4.13429446995963       -0.25125601080071        3.23635490003798
C            4.02167702506644       -1.63617265198374        3.38017832416757
C            4.65708342425197       -2.35040957414666        4.47913838628637
C            5.41322324606498       -1.79832102191536        5.46827318594488
C            5.90619556187628       -2.73615941572941        6.43533625908888
C            5.60791719115105       -4.05762038823627        6.09336874358224
C            6.14559593184731       -5.13885609376213        6.79446642110654
C            7.03692542290480       -4.90839934582074        7.80998338470150
C            7.35297046009851       -3.59622323655940        8.17538240192764
S            8.54214061574513       -3.09205571333909        9.35961227067390
C            8.17344641200002       -1.39573114433454        9.11792102608466
C            8.78820239339612       -0.30805157875987        9.74587567259960
C            8.32517159275714        0.96053470577274        9.51948310470404
C            7.20070583216951        1.14836585463617        8.71071224313318
S            6.35231785536264        2.64120699796565        8.37065315049640
C            5.08083968313883        1.80464223472528        7.53748192267957
C            5.32020914022431        0.48236529373842        7.46286481902649
C            6.56627008360680        0.08212871693020        8.07015550621604
C            7.12547856433340       -1.23262910502852        8.21021741322605
C            6.74335956211854       -2.49299808366675        7.57579192203948
S            4.55234111287568       -4.08668043984120        4.70058194789325
C            3.26300334138969       -2.32943579222913        2.43580859389134
C            2.64384893882150       -1.67950651066739        1.39795611382767
H            0.98514853033397        0.37110886956493       -1.43471061849291
H            0.58404511619288       -0.80708325610250       -0.16939884422217
H            2.04224940587114       -1.03234410961054       -1.18780452363998
H            3.60794961823625        1.46793215899438        2.09428750995664
H            4.70857219142522        0.31095259609607        3.95077747840389
H            5.69727864773235       -0.76132893044104        5.47524226710644
H            5.89008870899761       -6.14058389766276        6.49612700707667
H            7.50675760509150       -5.72542770005827        8.32963240369771
H            9.61840906724665       -0.48441527512268       10.40761718825766
H            8.78233738610718        1.81186517161976        9.99288321596744
H            4.20705762440670        2.29782932825411        7.15544053552837
H            4.60221179014004       -0.22216368054181        7.07634637049313
H            3.16681598868886       -3.39623308167846        2.53651024947225
H            2.06551726991162       -2.24539385324077        0.69080528679792
