55
 energy: -11.343684470108 gnorm: 0.000571103925 xtb: 6.5.0 (97a52f5)
C            3.52126948668279        0.04617521524156        2.48809158524247
O            3.76354952121428       -0.22994867288033        1.12833758373181
C            3.98035285650334        0.88846697141653        0.32967909426920
C            4.17313900993852        0.67241918487600       -1.04128379277876
C            4.38069111164966        1.71596847674696       -1.90385786691277
C            4.40904824256465        3.03026402025028       -1.43574487458891
C            4.60599935838222        4.16940729303112       -2.32277972920365
C            4.69562090359830        4.11396568709902       -3.71068282465497
C            4.85467184097393        5.43325496513852       -4.13569040196758
C            4.86359426219567        6.27831708075187       -2.97954907348836
O            4.71040460280243        5.47277716378606       -1.86343141100048
C            5.01643637075884        7.59820766450759       -3.41067691365872
C            5.09198225279313        7.57939818082026       -4.82992646032481
C            5.21394121648275        8.62569636717127       -5.73402339611046
C            5.22134654480058        8.32364904990535       -7.08889597203537
C            5.28710102467185        9.18257522915624       -8.21953128758411
C            5.22226587398891        8.38111486052140       -9.36186490207889
O            5.19802286643309        8.39990999103883      -10.74654321312280
C            5.08874892407116        7.08216084706102      -11.16210317756244
C            5.01246334985603        6.69828335066608      -12.56563709573325
C            4.96022282709150        5.36471390448230      -12.97329670817555
C            4.87356546221662        5.04426501650728      -14.30219458327866
C            4.83201733525656        6.03769735999619      -15.28948890988256
O            4.73286743195949        5.61967907231308      -16.61280001222914
C            4.65602877624877        6.65732947181379      -17.56215245615251
C            4.89094923426194        7.37459028787853      -14.87338495722089
C            4.97994285213983        7.69086095940006      -13.54256791639812
C            5.04926293343167        6.21171453797086      -10.07670782625653
C            5.12908980001023        7.01611451968226       -8.93959361303404
N            5.12759064272309        7.02561728968132       -7.57292658221145
B            5.01435072381246        5.78707929811825       -6.68049730054224
F            3.83246361344602        5.12521094044063       -6.96631606316056
F            6.11527813647028        4.97346321396712       -6.88574470498566
N            4.99274809488589        6.25116761446324       -5.22191328990042
C            4.22841517199811        3.25142839176123       -0.07221975302309
C            4.01739741456545        2.21021137814263        0.79402463227545
H            3.33962359891165       -0.89929678671399        3.00141529721530
H            2.63745610375798        0.67866865195942        2.58518962433389
H            4.39480816328694        0.52834362669661        2.92941267624164
H            4.14952095420603       -0.34067047140372       -1.40220021308118
H            4.52464484738829        1.52310843844746       -2.95215381291562
H            4.63846852942068        3.25010611217000       -4.34629293567356
H            5.05482674790855        8.46671170879055       -2.77916721129408
H            5.27821881296080        9.64249253073516       -5.39527482781069
H            5.35349460680084       10.25494981424874       -8.20538394865826
H            4.98965301480317        4.58287312061159      -12.23526101893620
H            4.83163619346618        4.01635294798324      -14.61653770363188
H            4.56009940554468        6.20823381934845      -18.55185846064855
H            5.56730709447356        7.25642761060798      -17.53023742876268
H            3.77793047176200        7.27445612639003      -17.36558545455575
H            4.86549408690623        8.16312744669077      -15.60285042249011
H            5.02178110911992        8.71965660167285      -13.22708815545419
H            4.95509923437457        5.14187273616231      -10.08561903209622
H            4.25262268553411        4.26586543829136        0.28837895016110
H            3.87835426861431        2.41357434452649        1.83992825176400
