107
 energy: -20.690975617757 gnorm: 0.000546048071 xtb: 6.5.0 (97a52f5)
C            2.12301385164849       -1.75217470699294       -0.81352667211948
O            2.25215446150300       -0.42715224173919       -0.34676580112004
C            2.99117325080847       -0.29210683501191        0.83382128241979
C            3.15117916589188        0.99526408110923        1.35820008852943
C            3.86089672308564        1.20852282304092        2.51240323825762
C            4.44952772943632        0.14863159971022        3.20374159201702
C            5.20004181522896        0.39557524855583        4.42453472839597
C            5.82756271788703       -0.54283889779792        5.19568230694434
C            6.47995846172776       -0.03295556506926        6.33741977838185
C            6.36497609923489        1.32797970480747        6.45576485183238
S            5.43496884841198        1.97184108150181        5.12844332855524
C            6.94586067684859        2.13740335217871        7.50998125530069
S            7.79054405232905        3.65151123644494        7.24628138693108
C            8.34119745804832        3.71923844575798        8.90198910407306
C            9.26285280732846        4.71966321302231        9.41539720227286
C            9.77667569172353        5.70358005032026        8.56956450313661
C           10.66177889725378        6.64425843482834        9.03115687867397
C           11.08217960247051        6.64947998577168       10.36576329936154
O           11.98865637194247        7.64048079450616       10.75865094650220
C           12.37837844159609        7.57971443805326       12.11297942960218
C           10.56721764188549        5.66187361255223       11.21326453488328
C            9.68126705083649        4.72152508833061       10.74876463235392
C            7.78343970019606        2.68726249145300        9.60968921225070
C            6.97643090378874        1.82183920017912        8.84051502866258
P            6.09051936697075        0.38635380400678        9.47939800509941
C            6.40952937542169        0.17543011490096       11.23845364656960
C            6.53301748314143       -1.10278484262668       11.72875676501617
C            6.71717156227402       -1.30638242863770       13.08497834963995
C            6.75298544489178       -0.22426329418490       13.94225190596063
C            6.58552301950290        1.05542640046172       13.45017654036149
C            6.39959111605892        1.25311347399056       12.09406145954146
C            4.30402229548505        0.61441219818232        9.36107922863801
C            3.51718788230419        0.20155326825748       10.41213652037818
C            2.14164572261476        0.32762204311786       10.34045393687494
C            1.55892059678408        0.86217738770269        9.20880914320942
C            2.34928514781618        1.26523820729607        8.15123329165512
C            3.72288822187301        1.13669460563000        8.23008997612722
O            6.54274621082004       -0.95784731026001        8.67550362665581
B            7.29593284892120       -0.98456621101359        7.36974500924629
C            8.79497361969572       -0.38894901536240        7.66026488860179
C            9.44973315284178        0.53792425367482        6.84479226220161
C            9.10844626890338        0.75719409493449        5.40935525849231
C           10.48765348324023        1.28603490543850        7.37955397047229
C           10.91668152555294        1.11158375287501        8.68241809084826
C           12.01645361699051        1.94686598403452        9.23827336814369
C           10.34504829624581        0.09667878491490        9.42779746853691
C            9.30862493222735       -0.67535281712786        8.92660438744275
C            8.89301780874997       -1.87799917344396        9.69877162563641
C            7.28932915621179       -2.53108566878476        6.82849822677395
C            8.37820189620615       -3.20734490175631        6.28045188694371
C            9.72719245280277       -2.59674491633140        6.12537146984588
C            8.21726359296040       -4.51781094072137        5.85268987575403
C            7.01028694196990       -5.18049079170422        5.96243584379319
C            6.85218122241328       -6.58025629909450        5.47829863262904
C            5.94108104799210       -4.49319930266461        6.50100499804238
C            6.05847922166576       -3.18030242589394        6.93018909768437
C            4.84062499650982       -2.54455788963045        7.50798723520160
C            4.29165423555854       -1.13852176258489        2.68292172145608
C            3.58114661057186       -1.35459486678505        1.52814897879297
H            1.53055485063697       -1.74582307696848       -1.72938779143133
H            1.61123177496741       -2.36329959021353       -0.06874129579723
H            3.10667650236762       -2.16847547272891       -1.03525983794440
H            2.70174389547036        1.81909354440595        0.83248714601190
H            3.97298675338853        2.20528848449408        2.90142181503755
H            5.83382458428987       -1.59256166156274        4.95663672230294
H            9.46905115757900        5.71079853066597        7.53858108049578
H           11.05270834608782        7.39791690462849        8.37068463730990
H           13.08529988252378        8.38640151282456       12.31137835831586
H           12.86705290485211        6.62648471623776       12.31918905148986
H           11.50880626973161        7.70864153435788       12.75894454512482
H           10.86887546052684        5.63553061760286       12.24459179530139
H            9.30473660485458        3.97072328675025       11.42054573465757
H            7.99682277944998        2.50782574115852       10.64971582650775
H            6.45745297761080       -1.93837872925703       11.05102817981621
H            6.82458593360479       -2.30714944973439       13.47012966578927
H            6.89688107250069       -0.37951568995274       14.99907189196623
H            6.58993073017736        1.89815293057516       14.12197957375300
H            6.20577780448640        2.24120992623919       11.70863320682689
H            3.97919701751606       -0.22379037452162       11.28821285998069
H            1.52696587250129        0.00612203174981       11.16521824468206
H            0.48723222025287        0.95993449068975        9.14890944291679
H            1.89672488873121        1.67369414751131        7.26249318196325
H            4.33904842153524        1.42701061665619        7.39833912006087
H            8.43076797423949       -0.00667039205405        5.03077897980514
H           10.00613289323432        0.73302153551610        4.79021870017280
H            8.63532724343711        1.72893198752375        5.26623949970612
H           10.96577141783332        2.02995420899901        6.76685275838523
H           11.95441131164135        2.97090549354025        8.86757863143299
H           12.99012876402015        1.54348009707948        8.95777387498350
H           11.96834425875750        1.98737419458430       10.32713868884407
H           10.72598775598929       -0.11090834287214       10.41230472620569
H            8.78660884767855       -1.64232932829472       10.75731890593297
H            9.63938632105712       -2.66830369173259        9.60961402527941
H            7.94771665449720       -2.27764952031333        9.33624535190346
H            9.69199994186257       -1.72672334753163        5.47310344642893
H           10.43219137004643       -3.30040817908016        5.68084537553055
H           10.14012909962429       -2.29770965472638        7.08799835491357
H            9.05580753064941       -5.03738805885238        5.42344694528184
H            7.80794483958780       -7.10577907703952        5.46958764641229
H            6.45019642776372       -6.59584868948131        4.46443298959256
H            6.17147295183553       -7.14209489650044        6.11927035621782
H            4.99078571703872       -4.99030002036725        6.58739463769511
H            3.94147407489889       -2.85111309000829        6.97208310776825
H            4.89390161167533       -1.45863034008327        7.46175124542537
H            4.72319533304892       -2.82286005553144        8.55571139427394
H            4.73419612946303       -1.97326492937509        3.19688891434267
H            3.47818002926247       -2.35708593140951        1.15442545992957
