58
 energy: -11.566934716549 gnorm: 0.000847542761 xtb: 6.5.0 (97a52f5)
C            2.96909609674307        1.14430047018631       -1.45748455573094
O            3.04364193846732        0.64158703912871       -0.14453824869029
C            3.49507267811098       -0.66469776522656       -0.03675082164401
C            3.58615821905810       -1.20931632808975        1.25308689206977
C            4.01433058287470       -2.49295316816975        1.45639932562263
C            4.37991055765899       -3.30840629649832        0.37812173403111
C            4.83077277613726       -4.66978653884035        0.56439317357815
C            4.93206101156498       -5.33490974745721        1.75908412304391
C            5.39588584667044       -6.66555300292268        1.60803452093144
C            5.66800215177781       -7.06449158080055        0.27303761281495
S            5.32852428408831       -5.70436247992884       -0.78180587421211
C            6.09747322605072       -8.37596620057846        0.28475631636297
C            6.09764029333883       -8.81924084060154        1.64172351875725
C            6.41871755210294      -10.05976498165019        2.18575415516014
C            6.82140923946486      -11.23414599300661        1.30510909428520
F            7.65571431121806      -12.03410197769339        1.99078174580676
F            5.70839062111508      -11.90741216228440        0.96842091680707
F            7.43386396305680      -10.77220329423907        0.20172570141859
C            6.27296441987300      -10.20739075478993        3.56212516288391
C            6.47924708585679      -11.34849653028053        4.39430954668467
C            6.17765410994623      -10.98136398425052        5.69011203218512
S            6.10421888093651      -11.57258539459457        7.34015054912303
C            5.54472142902460      -10.01615723420552        7.96825218304164
C            5.25570949549069       -9.79901678962459        9.36847452827641
C            4.83267100090525       -8.55623071217128        9.85607096272370
C            4.56157164307860       -8.37818940834697       11.18549498230597
C            4.69622115973731       -9.42838978067865       12.10609663649040
O            4.39957049248762       -9.15443935239067       13.43225287589840
C            4.54762271739993      -10.23990978765051       14.31700585940113
C            5.12040713708177      -10.67303705006780       11.61708200229892
C            5.39159839493585      -10.84673407054666       10.28678039020434
C            5.43208665368041       -9.09167095685548        6.96186644121132
C            5.78125986889665       -9.61810952330832        5.69311474497424
N            5.84980328148761       -9.18747303211834        4.40055622211046
B            5.51261232637499       -7.77565239281056        3.92125412289470
F            6.39624727727986       -6.87684434594296        4.49070142668686
F            4.20407529805681       -7.47813308972240        4.25647480279124
N            5.66633264026166       -7.74209072316799        2.40088108495653
C            4.29310493362464       -2.76424049781607       -0.90870233189716
C            3.86379623343675       -1.48122076248828       -1.11639684440556
H            2.60652964716306        2.17234643736206       -1.40513313076265
H            2.26653070274196        0.54731613629296       -2.04150179590160
H            3.96131006135647        1.13824591571477       -1.91190104556594
H            3.30544900388834       -0.58627868990118        2.08407121386531
H            4.07147292405730       -2.88018989670599        2.45794786905998
H            4.68396818655677       -4.92091647065199        2.72038669374578
H            6.38690140297217       -8.96297060563784       -0.56912882267641
H            6.82078394301847      -12.31440902303727        4.06583558159271
H            4.72072261658635       -7.73031592488429        9.17663418832608
H            4.23713131436326       -7.42158632626980       11.55591223794633
H            4.28936387981298       -9.89582715386790       15.31998177344680
H            5.58422935454157      -10.58098962318325       14.31279140359340
H            3.86867428311994      -11.04457860492802       14.02983059236892
H            5.23413992985012      -11.50206528686121       12.29130725760761
H            5.71608935221669      -11.80759884048932        9.92731578764332
H            5.10939414788085       -8.07359435856294        7.09023464524595
H            4.57015418641711       -3.37891407998970       -1.74726025218594
H            3.80734323411854       -1.09935258186335       -2.11933090869260
