21
 energy: -4.379175437322 gnorm: 0.000651121344 xtb: 6.5.0 (97a52f5)
C            1.18266865910670       -0.10051549290456        0.49621470046567
C            2.34784696673626        0.01625695389758       -0.12358880190452
C            2.99219829042628        1.26882472185353       -0.49004958506684
C            4.10734465813069        1.23726881902588       -1.25632225142244
C            4.78045031252932        2.42498029007053       -1.64136071647117
C            5.93520277157543        2.40907666551429       -2.43325954550775
C            6.55518156933452        3.57857774572273       -2.78541620588148
C            6.04066334576256        4.79651858504025       -2.35826268483564
C            4.91317811356400        4.83537805909383       -1.58346418822170
C            4.25860721292023        3.65653821772274       -1.20702975991538
O            3.12252848006003        3.73235940886126       -0.42065031605690
C            2.47469199012687        2.57287565582853       -0.03929843623557
O            1.48061371560304        2.61346176923465        0.66996572473770
H            0.76124197271528       -1.05728519439352        0.73400560343852
H            0.62265568855550        0.76566645177100        0.78163255356545
H            2.87361495795511       -0.88419636807911       -0.39676220958193
H            4.49802600002752        0.29216961797908       -1.58776234715739
H            6.33141381615736        1.46419887237632       -2.76285343248871
H            7.44338683628395        3.55594030621555       -3.39493815857089
H            6.53261568809110        5.71345978388280       -2.63857097765523
H            4.50788895433878        5.77301513128599       -1.24678896523366
