54
 energy: -11.200936786993 gnorm: 0.000746549394 xtb: 6.5.0 (97a52f5)
C            2.54270233886474        0.55319739006750        0.78667364549242
O            2.61746699529856       -0.04363660217828        2.06124200864382
C            3.37811900155887       -1.21288861881485        2.11796175549968
C            3.47851498143321       -1.85921922899175        3.35503997091785
C            4.20438609063340       -3.01350672162796        3.50031972682358
C            4.86947333308357       -3.58285996232608        2.41201507632695
C            5.64509111864762       -4.80543332388943        2.53999845565171
C            5.82529597786762       -5.54735728497060        3.67328882554328
C            6.63597072216449       -6.70869205085090        3.49613763726347
C            7.08448009446828       -6.87099256655340        2.19894041065828
S            6.51920358961105       -5.55161193584869        1.22544859626199
C            7.88007080736855       -7.97488259178814        1.81443757351902
C            8.29006232931257       -8.14377292298826        0.39810536133287
O            8.36755167742077       -7.19431973348235       -0.35878983064619
C            8.61022394451981       -9.50775558259463       -0.09959756203453
C            9.67482476031177       -9.68741316149032       -0.97219986325972
C            9.98056711573330      -10.93952056262986       -1.45732716093443
C            9.22131417448251      -12.02951561880476       -1.08306948023083
C            8.15144684332801      -11.86297242623166       -0.22724834958923
C            7.84420006732719      -10.61184816302500        0.25883232348834
C            8.24725810984156       -8.86160801623937        2.78739802818105
C            7.82997761365302       -8.71872398180629        4.15300556645809
O            8.19303754101596       -9.52650387651787        5.01097455327505
N            7.00065767363663       -7.64112866584825        4.47769707529756
C            6.56409077697554       -7.47918410047861        5.86535661412162
C            7.10276834622309       -6.23557806003854        6.49513269155488
C            6.30500445114328       -5.43107884440294        7.29381193427108
C            6.81282543581753       -4.27797587678900        7.85523039211117
C            8.12432942328798       -3.91784377811988        7.62665974230784
C            8.92871775611492       -4.71342462586866        6.83826880707724
C            8.41935425660003       -5.86639830005381        6.27913488704531
C            4.77121863259659       -2.93852381065264        1.17767080324556
C            4.04570969327423       -1.78408926807834        1.02898229116115
H            1.92384581481086        1.44855256928574        0.85979331858888
H            2.08240341481876       -0.13796704025947        0.07913248415685
H            3.54044103188398        0.83948536893678        0.45104986707203
H            2.96677570974490       -1.42570218817209        4.19588210590665
H            4.26434182459712       -3.48639643433897        4.46424693398413
H            5.40693496405843       -5.28372747623477        4.62883344616444
H           10.25480772458186       -8.82894773083552       -1.26474692739089
H           10.81229509208376      -11.06757758538318       -2.13053153142515
H            9.46094389641584      -13.00922737472077       -1.46256871625470
H            7.55383161905898      -12.71290309804172        0.05891385060799
H            7.00123903167755      -10.47622122175308        0.91426885022011
H            8.87291110787842       -9.69850866516186        2.54201868797232
H            6.89557447880636       -8.35330049982509        6.43291502980027
H            5.47120760989634       -7.48366838853078        5.88586324353269
H            5.28104141783177       -5.71194226318320        7.47009673473801
H            6.18383834334193       -3.65838003362246        8.47317018530394
H            8.52069586169167       -3.01674958079447        8.06517099814923
H            9.95404243854079       -4.43499443707837        6.65882818454051
H            9.03809684401426       -6.49106719351477        5.65830105079485
H            5.27889116925839       -3.36753208468674        0.33152671886452
H            3.99197493134478       -1.31475176818757        0.06391297786748
