37
 energy: -7.268133283892 gnorm: 0.000835443996 xtb: 6.5.0 (97a52f5)
C            1.22384266924697        0.53090545672735        0.15669626110127
O            1.73346822023592       -0.76217102371728       -0.07365118944270
C            2.53698311301930       -0.88596605454550       -1.20838905278294
C            3.05262070957713       -2.15334802601522       -1.49872924826942
C            3.85239411082104       -2.36536530112109       -2.59238663720650
C            4.17771822611471       -1.31703690368821       -3.45617192982784
C            5.02070522719505       -1.51330135046114       -4.62480646830007
C            5.59759998000920       -2.67970680792044       -5.03390998647726
C            6.37294662536419       -2.56354776872842       -6.22353258236208
C            6.40336918735580       -1.28259801318112       -6.74935296540564
S            5.44126676858057       -0.23338620499756       -5.73374601171746
C            7.13049850691917       -1.00182784164598       -7.93906188164497
C            7.21445059800498        0.33587765787493       -8.56369857439365
C            6.83690277985232        1.55385876201376       -7.78878969589011
O            7.59137590884691        0.44637047792939       -9.70898343379686
C            7.77627109129187       -2.03461015388272       -8.55347946018283
C            7.76733707919629       -3.37095203771295       -8.04018729962442
O            8.36765158228297       -4.27686339164299       -8.62190292447663
N            7.05852133762416       -3.60882163386412       -6.86197831577157
C            7.04436122441224       -4.95533082255457       -6.32057780714501
C            3.66289595963036       -0.05199956367449       -3.16680424506683
C            2.86358911601655        0.16350451795876       -2.07325485285737
H            0.60994084447642        0.50045516037782        1.05807655682603
H            0.60253380407010        0.84013898781046       -0.68521394440409
H            2.04573985818559        1.23197627424272        0.30958551458382
H            2.80411942073844       -2.96432419564702       -0.83724646849973
H            4.23377484329157       -3.35160395683071       -2.78824164523871
H            5.48379605886934       -3.61347244929727       -4.51095035779654
H            7.22527312195463        1.50984796868748       -6.77179408278852
H            5.75409971840266        1.66466917274660       -7.74283391311706
H            7.24577373874811        2.44231543456375       -8.26781924766615
H            8.31631281411769       -1.84447784352630       -9.46212258257195
H            7.63839499253035       -5.60963948541641       -6.95622918421233
H            6.02450424802021       -5.33285244647128       -6.28426241348094
H            7.46868723045330       -4.96046368669794       -5.31860239098988
H            3.90657680120686        0.76499695694172       -3.82324462782081
H            2.48698248334006        1.15139013537269       -1.88159291127956
