47
 energy: -9.468590149509 gnorm: 0.000942663390 xtb: 6.5.0 (97a52f5)
C            2.74818050212250        0.96975329008213        0.73466495993356
O            2.89830062710414        0.74179010646120        2.11690068662822
C            3.52793889865849       -0.45887529319138        2.45133939213567
C            3.70420033171831       -0.73999162412590        3.81042720803415
C            4.31320026333502       -1.89581120088061        4.22732414108191
C            4.77861106772683       -2.83370387609176        3.30288688436734
C            5.42702962220438       -4.06753592427532        3.71688775445243
C            5.64584874037062       -4.48487142791753        4.99632493257679
C            6.31177813682140       -5.73996579427936        5.09816830224913
C            6.62141726315962       -6.31083383918892        3.87472552886755
S            6.05461122951256       -5.25298082839368        2.60087458550558
C            7.30455681676706       -7.55710438598673        3.80899635411430
C            7.66816295607231       -8.24087812693048        2.54950019926799
C            7.09693529977307       -7.77993593887529        1.25074016302057
O            8.43572108140531       -9.17772353637131        2.56751044590491
C            7.66514766090974       -8.15213052942543        4.98269841863097
C            7.36749695213538       -7.58847051529140        6.26448501902439
O            7.71876325381423       -8.15285365002792        7.30309784336861
N            6.67062305486343       -6.38013775357132        6.29370904783783
C            6.36382343948457       -5.77857627064725        7.59258679452019
C            7.09923076794473       -4.49881557607878        7.82553005796299
C            6.50700261936503       -3.44966913135776        8.51021264537331
C            7.19340120227206       -2.27095820849610        8.71534620279491
C            8.48125487583651       -2.12933458674449        8.24411365298737
C            9.08401999957805       -3.16988040033860        7.56969483934304
C            8.39590592113643       -4.34733398921223        7.36594843822111
C            4.60454015152404       -2.55328286221502        1.94647383663410
C            3.99538418268307       -1.39836499464945        1.52634721066002
H            2.24732376462797        1.92890127964246        0.59624287899736
H            2.13536809941740        0.18262094546205        0.29285493524881
H            3.72784932500616        1.00962712339919        0.25619623569997
H            3.34727740073432       -0.02109004836734        4.52635162345673
H            4.43645409404860       -2.08227338021565        5.27912514449455
H            5.36270438947838       -3.91455705590750        5.86361455247434
H            6.02995296832472       -7.57776906624985        1.33976796569643
H            7.23206824392995       -8.54716789991512        0.48956691558526
H            7.59552734951904       -6.87353778665283        0.90870138854544
H            8.19821658135429       -9.08371410523815        4.95168913778830
H            6.62351377210228       -6.49968690738420        8.37250324381877
H            5.28385914005677       -5.62187983088877        7.65254295103001
H            5.50349244233606       -3.56275298137523        8.88249816495914
H            6.72210830896963       -1.46034509606221        9.24595755169476
H            9.01725299559484       -1.20830239104804        8.40460813860063
H           10.09027770304433       -3.06248786936773        7.20026587792677
H            8.85751997409317       -5.16424736099984        6.83892520844490
H            4.95967569948409       -3.26731246836203        1.22408991252122
H            3.87813082959793       -1.21721823244002        0.47375262755933
