35
 energy: -6.806153328488 gnorm: 0.000928292495 xtb: 6.5.0 (97a52f5)
C            1.34673529262634        0.17866287287573        0.60408195389732
O            1.92779447404518       -0.49507183961054       -0.48903024560724
C            2.63905280245841        0.32129995733396       -1.37195727177295
C            3.21471912816653       -0.28433201902438       -2.49419739032970
C            3.92878719302039        0.44399798266576       -3.41136592497118
C            4.10566189114288        1.82068078162243       -3.25248945522139
C            4.86207437260133        2.61711514901626       -4.20635841018490
C            5.40519190494137        2.18529351053090       -5.38300964975738
C            6.09865404127800        3.19400023991760       -6.11032465990596
C            6.09302973440958        4.42674956210023       -5.48264888192113
S            5.20459127674616        4.31662487667997       -3.98032212994188
C            6.74011876114855        5.54683986346826       -6.05559659461855
C            6.72971669169345        6.86867662615095       -5.37571632947103
C            7.37060792742444        5.38301684746587       -7.24986159287365
C            7.40156346787711        4.12110069496338       -7.93864753320045
O            7.98262075697692        4.00300520668237       -9.01993340588238
N            6.75267268933849        3.03699832556344       -7.34270829499349
C            6.76742003183066        1.75324353950185       -8.02031935851613
C            3.53372315369013        2.42508866462390       -2.13153774817922
C            2.81736887596131        1.69970578692166       -1.21363459643900
H            0.81049480618374       -0.54925230711732        1.21429821064927
H            0.64027662182378        0.92951209652013        0.24540277094199
H            2.12560166544500        0.64333389887779        1.21151975176409
H            3.08318728418477       -1.34441074355386       -2.62022421399783
H            4.36342175088857       -0.05090247652260       -4.26120905903293
H            5.32005807909915        1.17398934252553       -5.74124454579619
H            6.22539013812117        6.81046225542805       -4.41084445879866
H            6.20980141788072        7.61204507984000       -5.98066277559109
H            7.74571817990819        7.22369686704771       -5.20023043480989
H            7.86906278114719        6.21643510837974       -7.70797981825167
H            7.32083940159202        1.83679566549123       -8.95396897464288
H            5.75065535944546        1.43604996516929       -8.24380965171233
H            7.24887526525228        1.00489099132955       -7.39399311142976
H            3.66369480750701        3.48430174928178       -1.99658677785073
H            2.39063797413712        2.19914587785720       -0.36338939154909
