58
 energy: -11.524265355528 gnorm: 0.000725571734 xtb: 6.5.0 (97a52f5)
C            2.34403116725094        5.07291324426674       -0.92628930719031
O            3.36572771249096        5.40321068026189       -0.01153199814270
C            3.71628294177656        4.37581397109044        0.86888557421991
C            4.70311514406229        4.64567848078514        1.82380509556310
C            5.10180996705285        3.69219903310227        2.72615892539129
C            4.53460987183193        2.41648566417657        2.72097359605507
C            4.95172694270404        1.39109068385961        3.69941059204759
C            5.28412435988720        1.74152093405934        5.00744243442322
C            5.65731292792758        0.79325306596616        5.93907426510207
C            5.71033688401779       -0.55734749665533        5.56567925918464
C            5.38642351736915       -0.92773778997134        4.25241582892080
C            5.01237772540128        0.04372904083115        3.34536894278625
C            5.42462831014894       -2.37624888102359        3.84887936956145
C            6.45123496211218       -3.19829495071161        4.65413149635536
C            6.44411186170848       -2.86817941215359        6.12148306706981
C            6.79219649202773       -3.82133599415634        7.05775256752975
C            6.79685352074294       -3.53827494766024        8.42306655159197
C            7.14965502860472       -4.57743385948107        9.41248555469574
C            8.14367988696153       -5.52060956429681        9.14491517796234
C            8.45943295165228       -6.49255182494534       10.06043717247381
C            7.79691115498109       -6.57573507296274       11.29023462136427
O            8.17368272048349       -7.60011396770067       12.16316958982863
C            7.44698320689668       -7.64278994783468       13.37142970929431
C            6.80301034641088       -5.62753651720392       11.55784341162968
C            6.49027204293734       -4.65451630314279       10.64130705387067
C            6.44612811020184       -2.25091170190192        8.82790774941325
C            6.09909796824471       -1.27384758408639        7.91601146070235
C            6.09217291517672       -1.57916425500460        6.54721869603180
C            5.70851920954804        0.10207625421618        8.38167512447817
C            6.01557460852744        1.19911914955418        7.34226989493884
C            3.55130708371716        2.14314486014006        1.76761230675688
C            3.15024133316927        3.09591895123687        0.86440211546198
H            2.13553438024192        5.94390509814326       -1.54896469463342
H            1.43443744572495        4.80024053553041       -0.38883840058778
H            2.66788412103743        4.25171531010426       -1.56743332144557
H            5.14601451806918        5.62577018014085        1.83361248468640
H            5.87388488361399        3.91962494207129        3.44048380517482
H            5.23148221158222        2.77339211935310        5.30415543371226
H            4.77160182203514       -0.24625616649134        2.33861171100030
H            4.42336245012528       -2.80194190496848        3.98192119820773
H            5.63680416667096       -2.44686489908239        2.77482218729076
H            7.45900183070406       -3.02050722120875        4.26087099678571
H            6.26690707100546       -4.27201221568359        4.52408487656097
H            7.04902275188546       -4.81104636967016        6.72614858851872
H            8.67594724725987       -5.46996888581589        8.21096864039260
H            9.22797699909215       -7.21451991457911        9.84776691331490
H            7.80451364082552       -8.48487512773425       13.96571017284390
H            6.38503387113755       -7.78538676524658       13.16487169784578
H            7.60447658524406       -6.72247731519736       13.93519257390773
H            6.27271506540750       -5.66122759901084       12.49194619700463
H            5.70937635977415       -3.94645380469218       10.85852353603961
H            6.45487501373703       -2.00932553790457        9.87538001347784
H            6.21672978773113        0.32077087744130        9.32904824170299
H            4.63696299060220        0.10092115508173        8.61336943088658
H            7.08213160922837        1.45007533155808        7.37179258211249
H            5.48558731594379        2.12538395998807        7.59705569579868
H            3.08833310163271        1.17157017598148        1.76009303890778
H            2.38691988366005        2.85341009922857        0.14783050110035
