40
 energy: -8.114295781490 gnorm: 0.000986874505 xtb: 6.5.0 (97a52f5)
C            0.56553223749190        0.12284720051836       -0.42405815454609
O            1.29608168111164        0.22288660666178        0.77765914482151
C            2.14825865487558       -0.85322771315712        1.03522862612003
C            2.89909610533606       -0.82069987610018        2.21701937224841
C            3.75840806110678       -1.83843185560224        2.54077484446245
C            3.91382394630915       -2.94638258403114        1.70272819936544
C            4.83061504183823       -4.00680500499514        2.06106464958144
C            5.15970084647207       -5.10944675195715        1.36227448558642
C            6.17086931597174       -5.97422727816853        1.98993095852779
C            6.70344413840901       -7.15336969567479        1.45716495208169
C            7.67005931649221       -7.83929014082090        2.16399213254680
C            8.11622384137396       -7.36952972699070        3.38898127431283
C            7.59643460153646       -6.20271419079908        3.92357592380687
C            6.63267941151211       -5.52223580472451        3.22197888806137
P            5.77085396857285       -3.99437717231490        3.60408138652609
C            7.07849188435481       -2.84946681377350        3.11621630808545
C            7.50991015107781       -1.93982415167118        4.05528622550420
C            8.51409721977446       -1.04285404817106        3.73406069318205
C            9.07859955344141       -1.06323285573955        2.47367434306625
C            8.64357624693413       -1.97854159994899        1.53562611472154
C            7.64198224185673       -2.87459129019901        1.86064744535114
C            3.16650403518172       -2.98123518826236        0.52065375645014
C            2.30622296185010       -1.96272632497283        0.19499316974808
H           -0.06596252050890        1.00661026223258       -0.52629989118021
H           -0.07167076058030       -0.76222526859596       -0.40303187170099
H            1.24795829790072        0.08102803721770       -1.27390100369015
H            2.78644221288760        0.02793426252332        2.86807861871189
H            4.33362470642689       -1.79178160005817        3.44876919092872
H            4.74139190487129       -5.34399752800268        0.39562106381951
H            6.35678447115183       -7.50995925879304        0.50310990839997
H            8.08321551648591       -8.74788732440848        1.75761658629787
H            8.87342456092344       -7.91385343207004        3.92903662474711
H            7.93643719599609       -5.82260305838968        4.87199995537195
H            7.06060736605754       -1.93747283632013        5.03633259435265
H            8.85537407200019       -0.33071480923965        4.46730645323020
H            9.86063370214294       -0.36535917578540        2.22266162465303
H            9.08458699794009       -1.99582298549079        0.55238954525048
H            7.29896919762937       -3.59581695404399        1.13826617530411
H            3.26909626102979       -3.82366221796656       -0.14032588987297
H            1.74501135476105       -2.02092985190856       -0.71982442422718
