37
 energy: -7.854510265398 gnorm: 0.000578498204 xtb: 6.5.0 (97a52f5)
C            1.30929293486102        0.00285813874121        0.56047072209676
O            2.21630434585402       -0.19098728954253       -0.50021618819598
C            2.80886204666420        0.97562446838420       -0.98681326380722
C            3.70920171099828        0.84871524941055       -2.04979867604006
C            4.33580898371741        1.94360611558121       -2.58754908312089
C            4.09478560537914        3.22574237645124       -2.09104143398492
C            4.76772240498603        4.40619632002980       -2.67112709355904
C            5.03092944131092        4.48314618455488       -4.03925101713826
C            5.65822489969750        5.58040716734582       -4.57937450938274
C            6.05176959999889        6.64989822597947       -3.77616821707295
C            6.72886624936991        7.82969026239584       -4.35796094341013
C            6.31585398760390        8.36357173432253       -5.57791804902244
C            6.94350462611285        9.46245837368312       -6.11713786008788
C            8.00723689916246       10.06765210209648       -5.45805871358605
C            8.64504285351127       11.19156520423324       -6.00651339059479
N            9.17240907484323       12.12190359707171       -6.45893565807868
C            8.42464410037513        9.53760762356333       -4.24252678510312
C            7.79727205717244        8.43942415957383       -3.70162057555560
C            5.78920378353976        6.57459419137096       -2.40889962963817
C            5.16091112237746        5.47783500687832       -1.86852325224959
C            3.19646029172398        3.35563569014754       -1.02995164295505
C            2.56856249165070        2.26125788785225       -0.48985761131463
H            0.90621071218268       -0.96818629819508        0.85143372898394
H            0.48874086592318        0.64409107702440        0.23541409626161
H            1.82449723364966        0.44357870847430        1.41516785806404
H            3.90198658234180       -0.13620794398372       -2.43626961493448
H            5.03823211936211        1.81690944911440       -3.39265731664321
H            4.72220077145443        3.67453336300780       -4.67847231064254
H            5.86426129817154        5.61576335834705       -5.63503900944470
H            5.48406381956588        7.91368542258539       -6.09142144436054
H            6.61338085906951        9.86969256934630       -7.05754275033479
H            9.24968067563990       10.00049839465289       -3.72870671779705
H            8.13986153495531        8.03086674762758       -2.76686906392036
H            6.07516340281724        7.39676914718051       -1.77609210401541
H            4.98218637118970        5.43217484064678       -0.80843145709731
H            2.98363206880787        4.33743728980877       -0.64452271092122
H            1.88023217395868        2.39729108423574        0.32401168860500
