31
 energy: -6.425281061628 gnorm: 0.000848896932 xtb: 6.5.0 (97a52f5)
C            1.27522588549230       -0.54079659831762       -0.00304723982657
O            2.05687215256801        0.62359361540267       -0.14131301166116
C            2.85394150748905        0.93310996421072        0.96349338418571
C            3.61621378630138        2.10419782424100        0.90210919995062
C            4.42173133430986        2.48186010866564        1.94502370300714
C            4.51208467691845        1.70887485276187        3.10389539727718
C            5.36382794090725        2.13523329385048        4.20421333985447
C            5.65609415127010        1.43393725398433        5.34225889289821
C            6.50872839329343        2.11608597095222        6.24044294962035
C            6.89202611184839        3.35821432583234        5.81286896251041
C            7.74461030759322        4.28127013698689        6.51621210065975
C            8.33645369304688        4.07928352427033        7.73253050739453
C            9.11627674197098        5.17258945029272        8.17999405441002
C            9.13954990355953        6.22852144622457        7.31877426667860
C            9.81031486156552        7.43565174504023        7.47987920949560
N           10.37102037880001        8.44549574749448        7.61320114467598
S            8.17657635492078        5.86276436298975        5.91935603165210
S            6.18040899267261        3.67562108022386        4.25354851960142
C            3.75343395028164        0.53702565098585        3.16636999368444
C            2.94401680492519        0.15808045330635        2.12473745163952
H            0.69150024617385       -0.67388276539471       -0.91529628531629
H            0.59355014624911       -0.43064751915492        0.84192845995309
H            1.92229241194375       -1.40888821699142        0.13260548527549
H            3.55178396982401        2.70600304205107        0.01287125376147
H            4.99865352177169        3.38765525424361        1.88107877304572
H            5.27729563665525        0.44385988213314        5.54062668472072
H            6.82614584007014        1.69498691417630        7.18150685545850
H            8.21859878051058        3.17008290293882        8.30091502987235
H            9.64539410627544        5.17824692694937        9.12091739797403
H            3.79948641495931       -0.07280084320840        4.05106955703525
H            2.37037099583387       -0.74696978714803        2.20568793051241
