64
 energy: -13.396097816655 gnorm: 0.000479853512 xtb: 6.5.0 (97a52f5)
C           -1.40550445487383        1.85849378241644        3.22390942201900
O           -0.96658033065505        2.62120359051204        2.12219232192072
C            0.29112877321747        3.20574456562545        2.27981475704792
C            0.79456959281694        3.96540500449083        1.21760275550614
C            2.02223601355313        4.57136015558398        1.29194197639364
C            2.82000417930429        4.45332883158284        2.43441688368108
C            4.13107270335715        5.12283851951404        2.51917362896566
C            4.34461744761963        6.31024930036554        1.84171327726325
C            5.55542006989324        6.97197626130971        1.90020033178604
C            6.61856873100110        6.47459429728306        2.63139096191861
C            7.88787350179865        7.22151908070905        2.69093485088840
C            8.34445594618800        7.96319300575983        1.59769958873489
C            9.51129756131636        8.67971539296848        1.66722002843177
C           10.28643923501216        8.69884128654646        2.83289524525483
O           11.45773455828577        9.45794096374359        2.82114231585122
C           12.17436096158621        9.45706984130583        4.03525294086927
C            9.83075626296509        7.95377096685699        3.92672201982373
C            8.66487901948944        7.23636398772607        3.85141099383760
C            6.45226185507606        5.24109336938560        3.33483799711633
N            7.51200118001212        4.71151353908378        3.97799377309065
C            7.30365424113113        3.57544302871313        4.60804535339778
C            8.48312495596499        2.92498819700430        5.22291677891336
C            8.73365303989699        1.56281331569571        5.05938944533945
C            9.85273860837422        0.98214741264844        5.61226989063189
C           10.74893229053211        1.74973474421733        6.32875530425292
C           10.52550745703318        3.10296884761318        6.48597394833563
C            9.40682378266908        3.68637449533592        5.93460544649034
C            6.01299999923725        2.97208466470925        4.67108549400770
C            5.74897514283900        1.80547823732032        5.54283647684054
C            4.92137340351220        0.77923478248119        5.09405349535821
C            4.62699435439519       -0.29455604435636        5.90427452656018
C            5.14489265404141       -0.35934836694221        7.18231472201363
C            5.95256826015956        0.65744461362041        7.65078511019736
C            6.24712259186526        1.73283269726587        6.84334514569931
N            4.99296478440313        3.43667114735314        3.98319385270698
C            5.20188681507929        4.57492106723347        3.29388759367835
C            2.31681217440465        3.69024403238608        3.49095656752071
C            1.08885652856839        3.08429932593187        3.42314188709224
H           -2.38929548267345        1.44736128570103        2.99355233981859
H           -1.48701188893346        2.49249057849036        4.10805500943319
H           -0.71364285369864        1.03502098759590        3.40738598990258
H            0.19119346682502        4.06010172821133        0.33221923518365
H            2.39047103617706        5.12910687789255        0.44885805835318
H            3.53565491924688        6.74654373747686        1.28248087769989
H            5.66823725390646        7.91153510936722        1.38794559553481
H            7.77679942446773        7.95357494810591        0.68366676514650
H            9.85638557280785        9.24521280379552        0.81986904172036
H           13.05943342028090       10.08386241788512        3.91858718815740
H           12.49159225557277        8.44288198315031        4.28130579023167
H           11.55468535419268        9.86753311019607        4.83364158070511
H           10.40086240215424        7.93992883170596        4.83760361817256
H            8.32917497665721        6.66880335682003        4.70075818677805
H            8.03963653743685        0.96843317749848        4.49081503692948
H           10.02971163545024       -0.07319848639931        5.48387634516404
H           11.62542865256973        1.29425400154220        6.75980875216486
H           11.22941159454550        3.70443727535259        7.03755178069829
H            9.23225503511706        4.74219004766204        6.04604524833712
H            4.51043897760293        0.84211914732139        4.10140533260534
H            3.98772839905978       -1.08293296802789        5.54189019434923
H            4.91358666608251       -1.19973230353962        7.81612091505294
H            6.35035846332512        0.61154012524791        8.65134360405559
H            6.86258482073650        2.53423303367168        7.21311832589033
H            2.91735847798270        3.57467244614825        4.37465086654503
H            0.73975699193240        2.50479480617901        4.25809721187762
