40
 energy: -7.933574160586 gnorm: 0.000825546036 xtb: 6.5.0 (97a52f5)
C            1.61608519068185        0.83521886856836       -0.22702073204227
O            2.39061703293146       -0.25317406877365        0.22417733018915
C            2.99466862436283       -1.00215221406780       -0.78989836589884
C            3.74867318218209       -2.11852193860894       -0.41173946704111
C            4.36983483118815       -2.90891984757002       -1.34553007462043
C            4.27300044154325       -2.62234992233616       -2.70863647556562
C            4.94004488579180       -3.47198172242409       -3.71676044563229
C            5.05024854926323       -4.85173632851559       -3.53666703039172
C            5.66818565201316       -5.64240860941970       -4.47633224998967
C            6.20684404465610       -5.09010965504303       -5.63929067714978
C            6.87412382773431       -5.93895582772799       -6.64823342342222
C            6.40156900681766       -7.21982010474644       -6.93989436173924
C            7.02313686567840       -8.00493836655213       -7.87785786589475
C            8.15149332561528       -7.55351985378089       -8.57126059604607
O            8.72656209613017       -8.41733959021145       -9.50797238901183
C            9.88636995202715       -7.92027435437010      -10.13716255796008
C            8.62360708651602       -6.26951513577802       -8.27762936396310
C            7.99854786703548       -5.48463641623919       -7.34066249794999
C            6.09754957431117       -3.71052457914561       -5.81932575667496
C            5.47794201239105       -2.92033545544972       -4.88050601765976
C            3.52341601868646       -1.50659569419181       -3.08870535162261
C            2.89925442892151       -0.71559053164710       -2.15622032837633
H            1.17765227757555        1.33470031569095        0.63806545826405
H            0.81150345024743        0.47931913105383       -0.87247781750150
H            2.24744172416394        1.54726286188297       -0.76095816439618
H            3.83036614768427       -2.34434773540274        0.63679563075748
H            4.95782392831474       -3.75241673211266       -1.02724435159508
H            4.62921640263674       -5.30019595227698       -2.65378685668021
H            5.75412487103092       -6.70248969408126       -4.31210431445325
H            5.52620979716334       -7.58358833491805       -6.43034299721674
H            6.65124227310154       -8.98952296930518       -8.09981709282133
H           10.26549179088389       -8.68026608858645      -10.82180018872239
H           10.65310082269846       -7.70531786570654       -9.39131158790724
H            9.64583020860935       -7.02146302188866      -10.70725548593445
H            9.48802532375358       -5.88960282174775       -8.79094081611548
H            8.38711951939428       -4.50599752833180       -7.11763316790352
H            6.49343184417971       -3.26693896259982       -6.71630594525634
H            5.41778960787648       -1.85679895170753       -5.03267920322945
H            3.42200710129330       -1.27818048640569       -4.13560122659393
H            2.32907841291269        0.13481618447008       -2.48348317423097
