36
 energy: -7.330657000156 gnorm: 0.000521874958 xtb: 6.5.0 (97a52f5)
C            1.05380924297984       -0.38726147177448       -0.58008499948910
O            2.08820390834006        0.02706836409408        0.28485594159465
C            2.91708880467852       -1.00174708054574        0.74093834853978
C            3.95153954742207       -0.66185636343181        1.61992926270993
C            4.80639971388240       -1.61327150753969        2.11588781261086
C            4.67347330828843       -2.95649168442000        1.75860121531454
C            5.59234643397932       -3.98228652560269        2.29465460456245
C            6.09110190632069       -3.89116133078529        3.59494390724178
C            6.94548932424079       -4.84550155804756        4.09479220036136
C            7.34059800732015       -5.93341198802833        3.31730279219557
C            8.26290412397030       -6.95884585633264        3.85633314138063
C            8.14850490313082       -7.40252453764265        5.17339665070767
C            9.00964658279755       -8.35395427514798        5.67543401772235
C           10.00169134264566       -8.88199125549703        4.87411806638107
C           10.13044080132180       -8.45608287959062        3.56753138916216
C            9.27093366050618       -7.50473410933804        3.06232116715882
C            6.84355792245145       -6.02568465716071        2.01775648043376
C            5.98815363885748       -5.07205040106525        1.51778027388387
C            3.64387139716622       -3.29825497909919        0.87903836077586
C            2.78700538685233       -2.34806289909041        0.38143999215754
H            0.46388062663524        0.48528267153905       -0.86390979340514
H            0.40378603171206       -1.10076253979537       -0.07160388147398
H            1.47664615952426       -0.83352071010316       -1.48126752382913
H            4.06246307960304        0.37099827286488        1.89883283478910
H            5.60301042816121       -1.32329010994631        2.77855916189682
H            5.78680239937758       -3.06697011623399        4.21633445738659
H            7.32828326865594       -4.75221949002608        5.09638580152969
H            7.36730368715619       -7.00146187729018        5.79564638559113
H            8.90735426012047       -8.68729198520026        6.69524401785309
H           10.67516839080735       -9.62555091736702        5.26808538743060
H           10.90608992590739       -8.86674816895980        2.94203540022982
H            9.38162611532009       -7.16351935963116        2.04761748925097
H            7.12989859049150       -6.86436328128847        1.40698075263350
H            5.62745698592285       -5.15404039651992        0.50724052174062
H            3.51561420773037       -4.33015062592826        0.60198325000764
H            2.00578588572023       -2.64510437006538       -0.29400488703697
