38
 energy: -7.834185728658 gnorm: 0.000353394810 xtb: 6.5.0 (97a52f5)
C            1.42373398381259        0.55044165599986        0.17950691826143
O            2.37260220750734       -0.44408154168949       -0.13243869227056
C            3.05815177695151       -0.24481527378801       -1.33179581987633
C            4.02661519361745       -1.18934813770227       -1.68978985852734
C            4.74859619238286       -1.06537513620009       -2.84913054062341
C            4.54094776735964        0.01129512740180       -3.71386044313613
C            5.32076925710624        0.15014713573328       -4.96024166035780
C            5.70199511296643       -0.97011992835984       -5.70033568094126
C            6.42591571292947       -0.83941467103287       -6.86054484134470
C            6.80816198166085        0.41721597756291       -7.33591618548992
C            7.57025410035578        0.51662196503468       -8.56810542034617
C            8.12516875803353        1.64334533807724       -9.04666967855366
C            8.88314161953621        1.76148008479209      -10.27688930960131
C            9.02246062365944        0.70045778344668      -11.15979069818401
C            9.75352076302430        0.89921100409464      -12.29427979782081
N           10.32795612177171        2.04923105986049      -12.58300920046297
C           10.12861985169186        2.98440204867678      -11.67911181566089
N            9.45285395026124        2.93750378449909      -10.55119876096756
C            6.42528314056783        1.53845451706883       -6.59575590728739
C            5.69900740581198        1.40653323571337       -5.43665752248596
C            3.57273863800027        0.95398670628230       -3.36026040817913
C            2.84836652381600        0.83172205233836       -2.20118285646244
H            0.96319305491124        0.30277176012268        1.13675155937117
H            0.64913278414127        0.57964218712442       -0.58792421370472
H            1.91519192444686        1.52055990729535        0.26517624049553
H            4.19519817482098       -2.01900482177195       -1.02641267640103
H            5.50122160052003       -1.79510547338399       -3.09169184195823
H            5.40522737636820       -1.94745283809113       -5.36192541884372
H            6.70775481870715       -1.71591469026417       -7.41837034528258
H            7.70142601203874       -0.39661366099303       -9.11826949595916
H            8.03087855726919        2.54896247742875       -8.47808500944778
H            8.56278757708355       -0.25102510915239      -10.96405901799460
H            9.88118022595675        0.09342425216279      -13.00251383370094
H           10.59051606873491        3.93808569951587      -11.89708800185771
H            6.69250932413573        2.52122336715113       -6.93991017503623
H            5.42930598049763        2.28223718784590       -4.87254254436758
H            3.38298676967441        1.78009328155386       -4.02319140863770
H            2.10827906787843        1.57309168564531       -1.96166563635468
