61
 energy: -11.899572124777 gnorm: 0.000172432803 xtb: 6.5.0 (97a52f5)
C            0.36270462985577       -2.12663072558326        1.78824570352017
O            1.76419239981987       -2.19057216130264        1.93502849559574
C            2.45449894069809       -2.59375548703812        0.78797384138060
C            3.85273723528395       -2.61563296703356        0.84325581553385
C            4.60316605095422       -2.98418186019979       -0.24489220079562
C            3.99288886167035       -3.35548450780677       -1.44315896624000
C            4.79776901154516       -3.71691261996581       -2.63090964513099
C            4.41960717701683       -4.76983127088010       -3.46515143802479
C            5.14585038130658       -5.07257084209445       -4.59940396260997
C            6.25671643594829       -4.33378600714801       -4.94192870942183
C            6.66413365175483       -3.28587841180082       -4.11225995949960
C            5.93385111570108       -2.98791493862503       -2.96631332542554
C            7.81821597289115       -2.47578505295783       -4.56003498203432
C            7.71993198071746       -1.74908218524016       -5.72412878240157
C            8.43691728811632       -2.18550154588003       -6.93786832762083
C            9.14353824858057       -1.28703913083810       -7.73057117493411
C            9.78763506663008       -1.70029616645843       -8.89142967768354
C           10.50614484466996       -0.72554077593090       -9.74164891094368
C           11.27951659724852        0.28845946124383       -9.17585255884523
C           11.91657596174057        1.21278080455563       -9.96481512639240
C           11.80914548940181        1.17460527930218      -11.35955532931551
O           12.47505353010725        2.16352760607656      -12.08997540749098
C           12.26243737059344        2.11149555171517      -13.48339547374889
C           11.03927019636684        0.15129668279982      -11.92428477461446
C           10.40582969379865       -0.77458675701843      -11.13261339938771
C            9.71354135814124       -3.04892310643892       -9.23987955228691
C            9.00557712167056       -3.94331005260215       -8.46206500471023
C            8.35169559483512       -3.52880461401526       -7.32168601454484
Si           7.24897388057042       -4.80539893697651       -6.47427852514739
C            6.04141057101302       -5.41181631590409       -7.77112157122596
C            8.32867792053321       -6.25475817640122       -5.99086084955839
C            2.59862194089861       -3.34522615750336       -1.49958573165616
C            1.84556236950482       -2.97330810646906       -0.41357711906857
H           -0.07218944729012       -1.77191083921388        2.72359022289965
H           -0.03647691917217       -3.11786407526931        1.56913528404437
H            0.10143445344424       -1.42733341716354        0.99265491394047
H            4.32951469873366       -2.32908042261362        1.76383441181032
H            5.67750136280611       -2.99645175517084       -0.17964575439837
H            3.55207220592788       -5.35346075432715       -3.21021652198158
H            4.84586998186259       -5.89402868755065       -5.22715655426779
H            6.23433624916577       -2.15685156099607       -2.35477266347001
H            8.77759061728305       -2.92933563403960       -4.34776137873585
H            6.77938787043742       -1.25144463477983       -5.92260544052961
H            9.17413597009745       -0.25118460416477       -7.44564847946965
H           11.37870678982603        0.33476701885077       -8.10505484179751
H           12.50987647826139        1.99293972976978       -9.52181482659876
H           12.79146000632597        2.94337095330282      -13.95029761749779
H           11.19789206624622        2.20538736266631      -13.70284995630383
H           12.65273809258055        1.17630495825578      -13.88703737209471
H           10.93742995772293        0.08891055561125      -12.99230850707089
H            9.80263071830961       -1.54368870353156      -11.58359461882338
H           10.21772624348085       -3.38898458806088      -10.12774235474602
H            8.94753019501559       -4.97890614905526       -8.75242760099176
H            5.52645170339971       -6.30448422008937       -7.42884362059000
H            6.56394727895561       -5.64757092213590       -8.69343345049221
H            5.30693967523106       -4.63788539135863       -7.97494921687959
H            9.08456343478650       -5.92975619761908       -5.28182027463705
H            8.82270125839041       -6.67024916895545       -6.86420315283968
H            7.72521664369436       -7.03029237330972       -5.52812902650173
H            2.11376430514878       -3.61548935725734       -2.42190400084972
H            0.77376921972763       -2.97010362729047       -0.49207495637919
