24
 energy: -4.320995899004 gnorm: 0.000330780779 xtb: 6.5.0 (97a52f5)
C            1.00464282227512       -0.12740626250828       -0.14623607845878
C            2.25800022525932        0.27436317448578        0.02169162135328
C            3.03123028019466        0.12543144766685        1.25249384597368
C            4.21869482601705        0.82836154342600        1.41229055238016
C            4.95957744521124        0.70405128467550        2.56544318591142
C            4.55906186984558       -0.12334864018394        3.60817593812435
O            5.40084370829040       -0.15697061097802        4.73184473833860
C            4.91651221133138       -0.87204422666235        5.83967766374097
C            3.35244503380176       -0.86633262936790        3.45845540311791
O            2.95112682690420       -1.72217291121540        4.49620884067465
C            1.82463099285619       -2.52620328337580        4.21907352348487
C            2.62326596219780       -0.71662156618359        2.28830233345226
H            0.48826631094403        0.01320750765327       -1.07560824770395
H            0.45064861594687       -0.59215889980982        0.64315393962728
H            2.75924222848981        0.76085156196528       -0.79866567873239
H            4.55323801149321        1.48066687897603        0.62408703801499
H            5.87492926412914        1.25652990901199        2.68324454869802
H            5.60803244878751       -0.75278183581418        6.67475032833796
H            4.83829084999257       -1.92883824655382        5.58050939296376
H            3.93543567005696       -0.48683818402933        6.12145251719846
H            1.65798583528897       -3.19431191412171        5.06496633704613
H            2.00477069682635       -3.12775713807433        3.32707220948803
H            0.94162505338972       -1.89933670780100        4.08832498100213
H            1.71623281047005       -1.27383025118165        2.16436106596608
