61
 energy: -7.877350307338 gnorm: 0.048167516582 xtb: 6.5.0 (97a52f5)
C            1.10876993141308       -1.98509797997326       -0.57991611828639
O            2.08456645095146       -1.14851114317847       -0.00028414334324
C            3.02889251020251       -1.80901540830095        0.78952647059526
C            4.02865112250024       -1.03575427352506        1.39160319104688
C            4.99762541778364       -1.60896581360407        2.17574598535277
C            5.01799021010098       -2.98608653594680        2.39313481667077
C            6.06504000754291       -3.61477619536365        3.22852798657441
C            6.39084389681670       -3.10139270966392        4.48661622413264
C            7.35168792519487       -3.71746362874546        5.26457555480701
C            7.98265059208871       -4.81854486353625        4.80859600697395
C            7.70022333055831       -5.33549238794724        3.59330369252069
C            6.74433599118341       -4.75011173622012        2.79003376031398
Si           8.59071483230677       -6.79331334039873        3.02968237972116
C            8.34425788489004       -7.43535122151056        1.50757809393935
C            6.85417567105118      -14.85569550088294        7.99587214813656
C            4.26218782210093       -6.84032698597535        4.07646617518785
C            4.16076784652135       -7.16527588131793        2.83945388969384
C            4.98458311890995       -8.03877901058936        2.15750543188783
C            4.82204612712351       -8.48741539344322        0.91868969499911
C            3.87508049836921       -8.15922530949097        0.07347919732937
C            3.71795724419041       -8.64690442944508       -1.14344575875435
C            4.49577807386984       -9.59340699864246       -1.73596767519151
O            4.15347751057020       -9.88388577923765       -2.90703626766212
C            8.80091210109693      -16.40348141002565       -8.17068366924167
C            9.78184105520679      -15.65258473931646       -8.31607718386803
C            8.45503378135882      -10.81002049348444       -8.72264459144647
C            6.46115487106336       -6.04650340245343       -1.23740904657550
C            5.89577699842568       -4.94981625359860       -0.88284220897414
C            5.75632154496623       -3.61607581014528       -1.39323128713670
C            6.81506340369467       -2.81842877484858       -1.03309856177126
C           10.86356076430710       -3.93091489227922        2.57201683136912
C            4.02062892365298       -3.76003030085043        1.80007574996102
C            3.04731253775804       -3.18967064221999        1.01921424761020
H            0.43565474084524       -1.37110696821305       -1.17951477417677
H            0.53126494513170       -2.48169836717859        0.20142740967627
H            1.58518074048504       -2.72103857428489       -1.22909602187397
H            4.02142126330169        0.02599912085792        1.22025376518514
H            5.76551379057397       -0.99898530778391        2.61975286371637
H            5.87322217700450       -2.23044529816605        4.84997423093760
H            7.59883168576044       -3.33142861223436        6.23933186425272
H            6.52723945924738       -5.16393829001331        1.82136099122200
H            9.56473368148417       -7.37747029189128        3.88932975870515
H            7.65616128335943       -7.01906305576053        0.84195727487364
H           11.36946077146739       -7.81823741881721        1.85192554618273
H            8.62263979327499       -6.85481103381457        6.95824862137311
H            8.97031875143244      -10.36345784799982        3.62855817051443
H            6.70806019259247       -8.13067105203590        4.63853900348236
H            4.78392420879700      -12.06813300809851        4.81827612650790
H            1.35441330224953       -9.34413494110163        3.96203725499966
H            2.55470301187202      -12.47032958579595        1.20713846583049
H            3.63424755738630      -14.18729009418458       -2.44511825657771
H            7.55918339864173      -12.82001790622791       -1.22022541633558
H            6.13683750933994      -13.39165033113543       -5.71044137215799
H           10.08479898503707      -12.67140360694874       -4.82684628727849
H            9.20656441762675       -9.47276200593014       -2.40096813639552
H            6.37446432478656       -8.09302949039263       -5.45978149084703
H            8.70111388210699       -4.02657696234420       -4.99704893269289
H           10.94100231877866       -5.59622515963854       -1.72819409044137
H           10.00038563769870       -3.55247466003724        2.97472732326224
H            4.01822625622872       -4.82135575148604        1.97695303261863
H            2.29227189427555       -3.81446427205492        0.57840208227076
