80
 energy: -17.134625968257 gnorm: 0.000215454196 xtb: 6.5.0 (97a52f5)
C            1.29914544678295       -1.10977765742953       -2.53447877198851
O            2.65975672966465       -1.07459380226379       -2.90069351807596
C            3.20514017295438        0.20798829631014       -3.01235944131180
C            4.54217885161641        0.31158748349464       -3.40869222356401
C            5.15184015101674        1.53293476731618       -3.54710705850802
C            4.45548794552111        2.71548060695906       -3.29453300428370
C            5.10443710822745        4.03336954700416       -3.45373109506248
C            6.46512268927371        4.21103124124191       -3.11696561146225
C            7.09461271863136        5.41939683177127       -3.26576389871398
C            6.36851696096420        6.50119022124144       -3.75817254803309
C            5.01379372149344        6.34715687781621       -4.09514020871336
C            4.38477207593959        5.11561912571372       -3.94573023500866
C            4.54940399424030        7.62132174379751       -4.59401805755961
C            3.32433245382250        8.02866965476889       -5.11321733861521
C            3.17960133867093        9.32575746661801       -5.58959284258945
C            1.89436187061769        9.78174145704727       -6.15811470184913
C            0.67800641297677        9.36614582096114       -5.61552839180925
C           -0.51318665959320        9.79599374663900       -6.14365255818690
C           -0.55084134771464       10.66194018515934       -7.24119860443620
O           -1.80627436930062       11.05297971192804       -7.71620395852616
C           -1.77463359018262       11.93294633531778       -8.81680325774845
C            0.66939519463692       11.07524028580642       -7.78525043675077
C            1.85993263188282       10.64406157066977       -7.25514357572112
C            4.28608714854514       10.20099444812880       -5.53769618068122
C            5.49574068171911        9.80994020079339       -5.02744891980344
C            5.63550276988631        8.51139600528778       -4.53698918286783
N            6.75181255827197        7.83280891525727       -4.00147016161694
C            8.07655853240697        8.35665383127843       -3.84468823225950
C            8.22319425014543        9.66632723537006       -3.40268623206971
C            9.45916124950218       10.24522981623472       -3.38822928741799
C           10.53867438568353        9.49159355366736       -3.81571608527090
C           11.89191198173689       10.08879801444403       -3.96647917741052
O           12.87871890235478        9.52272912990162       -3.53441453467507
C           12.00257199646896       11.38239699530127       -4.68097267354833
C           13.15399621400282       12.16580459322047       -4.54154822245860
C           13.27966689016519       13.36838305983114       -5.19452011703523
C           12.24685253058644       13.81430754108263       -6.00765129568711
S           12.13866831843926       15.29858362317137       -6.94020721261478
C           10.53330232349605       14.90375698843523       -7.54207906540883
C            9.71888837471456       15.64192954196433       -8.38728348976681
C            8.48261648600563       15.14664424942525       -8.73444767101045
C            8.04980986750074       13.91816966257115       -8.24578604135595
C            8.84911019311047       13.17729453361581       -7.40832750163962
C           10.10691816060719       13.66970683624325       -7.04846381753413
C           11.09286661911252       13.04457005649442       -6.16803971179786
C           10.98089096497024       11.82440386132325       -5.50648388167478
C           10.30161475358629        8.16742719987146       -4.15785372845826
N            9.11942680984177        7.58646810695276       -4.18243253792203
C            3.12158643449355        2.61491955632868       -2.89587242716113
C            2.50930906923562        1.39398048778924       -2.75725939107203
H            0.97666527235343       -2.15113983386367       -2.49587460811351
H            0.69976248376056       -0.58209145139034       -3.27775251827663
H            1.16700743963290       -0.66283555348175       -1.54820081125607
H            5.08372205103444       -0.59588504215386       -3.60884578010115
H            6.17581925749016        1.58680343783577       -3.87337721382731
H            7.01305731253768        3.37348018953682       -2.72239077986169
H            8.13285570374581        5.55032816764323       -3.02169533795573
H            3.35569876006565        5.00403861654580       -4.23134109256532
H            2.50915751855315        7.33194660125157       -5.16921385773754
H            0.68171262740516        8.71323614547530       -4.76011737857328
H           -1.44743614157889        9.47509520114065       -5.71828552714721
H           -2.80049980090860       12.17307193016805       -9.09933849262140
H           -1.27877656039856       11.45418020768337       -9.66237721483602
H           -1.25931793572883       12.85441500059657       -8.54204790500784
H            0.67887492781769       11.73756767946142       -8.63139588953603
H            2.78781111469460       10.96000061026589       -7.69946050675424
H            4.16593301449944       11.20630729159841       -5.90177492508429
H            6.33561556777663       10.48029674118754       -5.02143349777710
H            7.35713265060252       10.21485399480258       -3.07701187598511
H            9.59757375359130       11.26684128142336       -3.07792199045020
H           13.94556753517849       11.80432877867050       -3.90821367974922
H           14.16423579248187       13.97119455092994       -5.08455413816381
H           10.06262776901812       16.59167721417397       -8.75862513899669
H            7.84319803667057       15.71506885848141       -9.38959527652519
H            7.07848188723185       13.54491702989849       -8.52591668613515
H            8.51760466283515       12.22779234808324       -7.02716639994000
H           10.09936071824227       11.22667476538590       -5.64191614879964
H           11.14394384215366        7.56727654617591       -4.46329072596624
H            2.57269810379671        3.51513270476956       -2.68006513487279
H            1.48159166604508        1.35226642584969       -2.44617134849102
