80
 energy: -17.091822278256 gnorm: 0.040946630053 xtb: 6.5.0 (97a52f5)
C            0.29817183982958       -1.86796392333061       -1.19062713854633
O            1.53533791805139       -1.23399259110713       -0.95944732084118
C            2.46220558999993       -1.35907958032331       -1.99860500385865
C            3.70974578874380       -0.74982303777956       -1.83143002756787
C            4.67527239770737       -0.82505412152255       -2.80319479346653
C            4.44202857889686       -1.51379568287373       -3.99408855452187
C            5.47905246620507       -1.59546821243094       -5.04357415158686
C            6.84190418730057       -1.72169170858352       -4.69799646413972
C            7.82769777231562       -1.80462177390619       -5.64681873658780
C            7.47582261142988       -1.75633059682465       -6.99641395341931
C            6.11808920871600       -1.65231326479378       -7.35753766593737
C            5.12626323130880       -1.56660800088227       -6.38632298402924
C            6.04773041197556       -1.68062796469857       -8.80041235147443
C            4.99392654624372       -1.58507072053043       -9.70438353196653
C            5.25762636282561       -1.62303369627603      -11.06976131505187
C            4.15361301881508       -1.51114400069294      -12.04596730520963
C            3.06943631566877       -0.66483341432460      -11.81062590098409
C            2.04907213971664       -0.55515346285844      -12.72091331283706
C            2.05734961770311       -1.28682024471221      -13.91258113432901
O            0.97859317319639       -1.11567982398190      -14.78522786564487
C            1.05119424199331       -1.87293106076189      -15.97062770344016
C            3.14311535029227       -2.13746211729975      -14.14572737442071
C            4.16361174910128       -2.24464445392227      -13.23349617083606
C            6.59342129198029       -1.76309075779335      -11.51238479934254
C            7.63356743339777       -1.86837249161484      -10.62802326993891
C            7.36257597580996       -1.81778816725319       -9.26575883192207
N            8.25001219242078       -1.82671713266172       -8.17765171726105
C            9.66334339635572       -1.80751138901927       -8.39231942392644
C           10.49565226796863       -1.21491584043279       -7.45409960631285
C           11.83677796541835       -1.16246203063138       -7.71083096734565
C           12.27387434689734       -1.71614756569227       -8.91113853339707
C           13.72253022232911       -1.71126226989623       -9.27506533431747
O           14.26771351235610       -2.74179810971473       -9.62497656210720
C           14.48264750977932       -0.44229318197392       -9.23026671483037
C           13.83296087361690        0.80103640304504       -9.20137214155960
C           14.54460839286296        1.97510169589353       -9.20379576118299
C           15.93070336790868        1.92962907503078       -9.24186299945126
S           17.06731392359555        3.26614256776244       -9.26236445089414
C           18.45638654875096        2.19110754059577       -9.32506669534550
C           19.80228961594742        2.52339491966036       -9.37004514338341
C           20.74193149284640        1.51911714412173       -9.41245914478951
C           20.34958223435309        0.18327907044774       -9.40915201127850
C           19.01765576193233       -0.15712155844844       -9.36611558646647
C           18.05295904647009        0.85330810569383       -9.32321993891291
C           16.59877843538976        0.70284183156274       -9.27485763757349
C           15.86387279884780       -0.48187895980051       -9.26876786426453
N           11.35882060256625       -2.26187034008834       -9.71373340549321
C           10.14349046745802       -2.30940555635267       -9.53549382480261
C            3.19788546749922       -2.12307994307889       -4.16380446741515
C            2.23037713022859       -2.04909281406880       -3.19275671256194
H           -0.34194103183210       -1.70702478303397       -0.32227128696866
H            0.44811116956956       -2.94021778085235       -1.32450378310024
H           -0.18324429375140       -1.43557890771001       -2.06888063448595
H            3.89463915032924       -0.21475616598927       -0.91698159053864
H            5.62152595043312       -0.33343517050484       -2.65877068691749
H            7.10496230554286       -1.77636419044487       -3.65604438841205
H            8.85434568572962       -1.94334619246491       -5.36178783533381
H            4.09832253852710       -1.46702967421687       -6.68018920401981
H            3.98608910963048       -1.49899203929159       -9.34437460067621
H            3.04741674308749       -0.08008525340614      -10.90738114777847
H            1.21851625939127        0.10250331610305      -12.53503688533837
H            0.16795826928996       -1.65785259688973      -16.57300064400847
H            1.06667167171410       -2.93732768597668      -15.73271892396103
H            1.94041622236009       -1.59541902213210      -16.53734474576499
H            3.18111629548276       -2.71751294733852      -15.04967499894100
H            4.98227930317144       -2.91690977092962      -13.42327984670712
H            6.79158751838755       -1.76711918988666      -12.57036692392151
H            8.65857468559616       -1.99154902336607      -10.92943503527035
H           10.08334895583026       -0.75896716623747       -6.57233121259665
H           12.53297781465924       -0.71689485147458       -7.02177140840403
H           12.75761666415140        0.82865888794766       -9.19065511218012
H           14.04568382486066        2.92872618428137       -9.18284736757450
H           20.09318983513147        3.56049046227799       -9.37313498034488
H           21.79025122635202        1.76861053406657       -9.44857269675517
H           21.09755591647012       -0.59167370372383       -9.44264041378736
H           18.71165417991582       -1.18885173296862       -9.36469166353867
H           16.36383459348471       -1.43209244783319       -9.30739524712417
H            6.51351239865905       -4.16765867783277       -9.59980109228703
H            3.00576944851708       -2.67331989351422       -5.06846603709431
H            1.28368479601419       -2.53107730743574       -3.35454529914733
