42
 energy: -8.837728318243 gnorm: 0.000684355207 xtb: 6.5.0 (97a52f5)
C            1.44960594123797       -0.69639849747603       -0.07428289704216
O            2.37285963750857        0.36855140726869       -0.05790765850520
C            3.12303854522828        0.47718461283190        1.11725283635189
C            4.04843578925594        1.52225025851990        1.20217952551375
C            4.82076152485451        1.70136589374126        2.32186588323725
C            4.70857720377726        0.84203383837634        3.41601915851488
C            5.53740420599133        1.03058082571827        4.62318985073814
C            5.86454983556456        2.32177089837547        5.08548641771886
C            6.62095885874234        2.49439240988476        6.20484839600173
C            7.10365835814630        1.38986907829329        6.93762584578626
N            7.84268884420677        1.58890118327058        8.04772594301600
C            8.23172478644523        0.49611346138875        8.64089799976086
N            8.02409314992071       -0.77703810593418        8.32836759110586
C            7.30411408938333       -1.00057492784619        7.24343761828897
N            7.05225109900533       -2.31602490997816        6.82977843464865
C            7.45887355106563       -3.51981135690921        7.43365423229775
C            7.12889989819075       -4.73846684578657        6.83929928658877
C            7.51425337352102       -5.92890822501780        7.41310847524250
C            8.23577865039947       -5.93136158278641        8.59115351844764
C            8.57186242826200       -4.73481846152818        9.19355454354466
C            8.18752567365871       -3.54549913801618        8.61983569299659
C            6.79344997865296        0.09163930200114        6.48590354365262
C            6.00738599378280       -0.05704045890275        5.33057781685451
C            3.78737296091493       -0.20396269314317        3.33314185717816
C            3.01299896571022       -0.38380219619765        2.21400088274162
H            0.91258233307406       -0.67771473916943       -1.02351958946313
H            0.73143376892296       -0.57948520725213        0.73860831708614
H            1.97726208871865       -1.64729797076429        0.01347800510023
H            4.14230521851860        2.18616388822702        0.36112442711483
H            5.53835546483105        2.50246657922155        2.35645348837149
H            5.49115660736121        3.17776372542794        4.55114318595232
H            6.86183141463352        3.48271333169305        6.55466495615939
H            8.82423605736898        0.64959797278265        9.53261172643929
H            6.52862993914961       -2.43316235535213        5.97145221780367
H            6.56649535744057       -4.73722368369351        5.92206359122937
H            7.25135248120533       -6.86232674138314        6.94281467277084
H            8.53525092932151       -6.86449744793097        9.03934003364995
H            9.13618246803844       -4.73406594836518       10.11173187652985
H            8.44887847552415       -2.61441575707585        9.08295924196534
H            5.76690252874970       -1.03668485762886        4.96818227827623
H            3.67127871068004       -0.86544544203082        4.17408209556767
H            2.30956281303323       -1.19570111685887        2.18537468077178
