20
 energy: -3.742256416764 gnorm: 0.000811680659 xtb: 6.5.0 (97a52f5)
C            1.12559476082053       -0.15133378873817        0.10421578363499
C            2.40490820282223        0.15188266427428       -0.07158299464321
C            3.16307234707422        1.10438547505956        0.73699959118859
C            4.41460273280306        1.54209152352857        0.30135691831870
C            5.14989404472261        2.43369522346015        1.04127446937062
C            4.67489986682295        2.93259557918742        2.25859493817517
O            5.48776373187143        3.83640738710803        2.95059845830763
C            4.96134297274948        4.28138160593013        4.18119151677901
C            3.42206768365693        2.49006069207171        2.69596446204020
C            2.68735087902703        1.59827363858361        1.95303446775448
H            0.62320293251771       -0.85943726181142       -0.52520770486613
H            0.53749180187280        0.30889365260256        0.87121199738644
H            2.94272865480715       -0.32428489311166       -0.87420437145087
H            4.80045425010379        1.17226506829584       -0.63318158610630
H            6.11264242197720        2.76730903524740        0.69671262839983
H            5.67672016198794        4.96416634779981        4.64140410757362
H            4.80541304324022        3.43357810138743        4.84969150989159
H            4.02363735658051        4.81343012311432        4.01595845208673
H            3.02716005559129        2.85045055341698        3.62826168708831
H            1.73354209895077        1.26432927259367        2.32110566907054
