27
 energy: -5.563339199980 gnorm: 0.000798668766 xtb: 6.5.0 (97a52f5)
C            1.20302025621464       -0.22479286487493       -0.36472666733363
O            2.22488878234917        0.32522627460140        0.43473293530081
C            2.97667412135766       -0.61207781998609        1.15718864588904
C            3.99769725295554       -0.12668034445707        1.97851048198059
C            4.78045557703579       -0.97969475537408        2.71703291500443
C            4.58213927148182       -2.35659009586238        2.66967242062975
C            5.43889549743281       -3.24346540833500        3.46827957717621
C            5.41930821531406       -4.64169723679393        3.42187589726808
N            6.37399676712308       -5.09580476874588        4.30199964124920
C            7.06986282874652       -6.12905746099491        4.90883704061381
C            7.99205202450643       -5.57963331115791        5.78179126920153
C            7.91382775600821       -4.20375554044327        5.75186060980167
N            6.92159378394423       -3.87367643971557        4.83752810382021
N            6.35286890033497       -2.78208795043963        4.33181894256802
C            3.56334751451129       -2.84639879488458        1.85349030400532
C            2.77757220079497       -1.99506195622429        1.11360240233293
H            0.68418057646287        0.58884884576269       -0.87349706864593
H            0.48915898247124       -0.76151256572466        0.26162642187300
H            1.63335930271073       -0.89149077267966       -1.11312706274186
H            4.15712939204568        0.93623462957904        2.01862097708590
H            5.56353216394126       -0.59305191108729        3.34520861434052
H            4.80387940944430       -5.27132857320987        2.80641925608446
H            6.90287287882262       -7.17398335894242        4.71448374356622
H            8.67420773657280       -6.14527313665163        6.39486909836142
H            8.49935343498362       -3.49894373746911        6.31346601656752
H            3.39029166208494       -3.90690238585985        1.80679415953478
H            2.00038371034356       -2.40182856003193        0.49292132439794
