36
 energy: -7.152795135651 gnorm: 0.000768457764 xtb: 6.5.0 (97a52f5)
C            1.21375100076372       -0.95183210237834       -0.16955504596084
O            1.65358454868066        0.38627717967236       -0.23895404718451
C            2.39331226661295        0.71886364847295       -1.37957785362398
C            2.75472869093604       -0.21538776052127       -2.34507864313445
C            3.49143135102748        0.14178966645369       -3.45270033521009
C            3.90082315325986        1.45085762153229       -3.64012956986213
C            4.67889512584178        1.79846607072364       -4.82833217066256
C            5.22241607789514        3.04446521214762       -5.15760217419581
N            5.86391372475392        2.96755042527412       -6.31889494389885
C            5.73188405432745        1.70608636277379       -6.72218157318894
C            6.28886317150835        1.18488008965264       -7.96847033053838
C            6.08308468069125       -0.14354372673047       -8.32475237139221
C            6.60437709362740       -0.64148712290408       -9.49790399525190
C            7.33829524084709        0.17951586093596      -10.33166832547427
C            7.54945761529834        1.50118583348034       -9.98971715724844
C            7.02861304621706        2.00148537021578       -8.81751142698993
O            5.01033529127638        0.94299205547703       -5.83717628561400
C            3.54787193463899        2.39764929567050       -2.68371745241495
C            2.80296678794809        2.07152232022037       -1.56162491953600
O            2.51453696540279        3.13235756549013       -0.68431550396658
C            1.63331355424303        2.83459544420814        0.36749995852752
H            2.07203196895406       -1.62298078445030       -0.11863668152703
H            0.59182129214088       -1.18384724767542       -1.03503975288410
H            0.61746493442045       -1.07359016601567        0.73563459115373
H            2.45832377579506       -1.24155189088021       -2.22936432655388
H            3.76143826438663       -0.59358775791494       -4.19114279211422
H            5.14989771173137        3.94772720480054       -4.57133334912909
H            5.50845353901771       -0.77383892807332       -7.66793146274846
H            6.43864408328353       -1.67216624448930       -9.76626750786597
H            7.74582656291071       -0.21114291731517      -11.24963561040168
H            8.12192544548527        2.14114023658578      -10.64095511145223
H            7.18729665053474        3.02970909150862       -8.54268307696966
H            3.84957922887502        3.42035893876077       -2.80780916970176
H            1.42364300344528        3.74732567591846        0.92703541355163
H            2.09727331293192        2.09891348893633        1.02669857555645
H            0.70459485028221        2.43169199043730       -0.04033557209227
