35
 energy: -6.998062892575 gnorm: 0.000460346802 xtb: 6.5.0 (97a52f5)
C            1.35940175413568       -0.93945427477609       -0.74272018410693
O            1.70130519334634        0.30182468804284       -0.16865223426617
C            2.34576914614657        1.20387428563716       -1.02177080833762
C            2.69019495068644        0.89348990444238       -2.33328793339721
C            3.33324738507772        1.80345821964122       -3.14269460673298
C            3.66267513511485        3.06292042266302       -2.67205405172963
C            4.34182219287939        4.00568372120585       -3.55973979004925
C            4.80955393230205        5.28646559625847       -3.24978814592871
N            5.37428400923156        5.83366337421674       -4.32074747326852
C            5.26872886579334        4.92783080279742       -5.28883057441157
C            5.76562713791640        5.12387328597432       -6.64903792192580
C            6.43502271692338        6.27614041200369       -7.01929766898703
C            6.87275576545452        6.37882681262697       -8.31345825439047
C            6.62846060338470        5.33972638414126       -9.18410664212161
N            5.99016661322254        4.22463483515072       -8.86585772646694
C            5.57827215324341        4.14510632411648       -7.61490985794029
O            4.63947988053206        3.78210780590875       -4.87075547964685
C            3.32600978637247        3.38920823448629       -1.36229030908531
C            2.67261060223775        2.49880639512496       -0.52556842358084
O            2.38804454856921        2.96405575326474        0.76989176432504
C            1.56402772520106        2.13728397425337        1.54842315460071
H            2.26330113373363       -1.46900585025225       -1.04697203798542
H            0.69430605223932       -0.78469656540530       -1.59353113527974
H            0.83820171063849       -1.53289020845662        0.00968780135901
H            2.45584851876684       -0.07713002219226       -2.72992469880847
H            3.59161617318080        1.54849024377990       -4.15633341897597
H            4.74221786184479        5.77801109895388       -2.29123129881013
H            6.60233495285873        7.05927561243969       -6.30041516912233
H            7.40082835520450        7.25810928486485       -8.64389864200938
H            6.97241747054510        5.41669352121204      -10.20512533426321
H            5.05568861417866        3.24602395047425       -7.32857335929758
H            3.56717333074661        4.36056556229813       -0.97392845331495
H            1.32824532117603        2.64850236360832        2.48291627597867
H            2.09135928628133        1.20573184483900        1.76062459688916
H            0.64376112083227        1.92528220665302        1.00155804109334
