41
 energy: -8.445364963822 gnorm: 0.000342975206 xtb: 6.5.0 (97a52f5)
C            1.52785362289568       -0.87903838733075       -0.64047083435085
O            1.90293075343492        0.28275803324556        0.06478248426859
C            2.46133398901012        1.30405420522668       -0.70772933228828
C            2.67468857042809        1.19009819157811       -2.07826357812982
C            3.23699647736212        2.21451465327919       -2.80582440096640
C            3.61230969607080        3.39833763474166       -2.19253281886175
C            4.20581983209990        4.46433229036566       -2.99624441497210
C            4.65890150540050        5.71548024244192       -2.56123709394087
N            5.13537808774849        6.40675623703230       -3.58817461515353
C            4.99029657346795        5.61997381659522       -4.65626750210986
C            5.38374565542680        5.99239581928009       -5.98679679022308
C            5.95651341924789        7.17607813825357       -6.25789227142012
C            6.38682214248351        7.63583635013666       -7.56251608573387
C            7.03116708693123        8.86967138662436       -7.67941466451281
C            7.45488901700924        9.33452863619055       -8.90111347318617
C            7.25085979954891        8.58680402066331      -10.05554196258840
C            7.68488280222734        9.06022492033062      -11.30214349455924
N            8.04415035852043        9.45174651158656      -12.33483624246971
C            6.60739042902440        7.35878715699923       -9.94737280180621
C            6.18299665081012        6.89086924602602       -8.72668236315304
O            4.42129539912011        4.41032610851586       -4.33993428002891
C            3.40498928815305        3.52925501209384       -0.82325301699403
C            2.83620997832376        2.51919507820927       -0.06403188628719
O            2.68019942421233        2.79127143035271        1.30498849389275
C            1.96659511176849        1.83388502502289        2.04116154268017
H            2.40667488544244       -1.33323093156839       -1.10035230113360
H            0.77836784959308       -0.62991401533400       -1.39307077188605
H            1.09535836228076       -1.58570774698759        0.06916865498756
H            2.39948781181864        0.28444643005942       -2.58660553441056
H            3.39570383314871        2.11099758476737       -3.86581768214971
H            4.64195146304403        6.08604036401221       -1.54767770417711
H            5.20751096286660        5.27660371631696       -6.76643469317498
H            6.11630560457685        7.84466385903441       -5.43096420229881
H            7.19776445870654        9.45915306186530       -6.79419524684173
H            7.95233657999945       10.28637018164756       -8.97828649419194
H            6.44499328780913        6.77684690063510      -10.83870642952489
H            5.68345761102161        5.94049447084667       -8.67109730078471
H            3.68433167126910        4.43755921859976       -0.32373339001676
H            1.83729899111948        2.19610440231824        3.06213577364983
H            2.52848041427903        0.89826704164151        2.04928528053706
H            0.99075054229573        1.67628370468677        1.57851344430315
