38
 energy: -7.814755201969 gnorm: 0.000451110408 xtb: 6.5.0 (97a52f5)
C            1.78846597367252        0.97104867059463        0.32584807233227
O            1.83924849312626       -0.42495602410999        0.13040902902831
C            2.65379400824094       -1.12948205544415        1.02375672606781
C            3.37302404648653       -0.51448087766056        2.04335543503191
C            4.17838818914121       -1.23918818525028        2.89410544862780
C            4.30262638875481       -2.61122486485030        2.75652337276275
C            5.16266160428344       -3.35308885013681        3.67848580956148
C            5.45354766587151       -4.71941792018800        3.65889580950541
N            6.26738697591913       -5.02471832895952        4.66464287343158
C            6.49104710639722       -3.88461360383586        5.30990529512516
C            7.30676332260622       -3.78800728183276        6.45279087202241
C            8.00069231455627       -3.70262149559557        7.45531260428344
C            8.78212105672515       -3.60521407484057        8.62250757146503
C            9.19924361277956       -4.74883101194449        9.29574631137237
C            9.95662715482393       -4.65307645821219       10.44335949462633
C           10.30969611445298       -3.41420854849861       10.93766737955960
C            9.90489891658922       -2.27023791190490       10.28095970576618
C            9.14755903224609       -2.36397687006165        9.13313719701652
O            5.83439856055629       -2.82230777495817        4.73888425871539
C            3.58920730284905       -3.24187514710669        1.74239723639662
C            2.76072359737642       -2.54278527745142        0.87912373920047
O            2.08579203723607       -3.30765202922336       -0.08918910226445
C            1.03236137297287       -2.65682870472325       -0.75119818316490
H            2.78458009866543        1.39907068298879        0.20620127724542
H            1.38764857217920        1.19368448470458        1.31565355528358
H            1.12723004942671        1.40145243499769       -0.42739691285717
H            3.30528179312276        0.54968030935474        2.17528792000481
H            4.72595055666019       -0.74795510683860        3.68023728019752
H            5.08411072363446       -5.44157396225019        2.94705975024341
H            8.92000571923746       -5.71355140529415        8.90784848904027
H           10.27205472635983       -5.54701364226443       10.95595963190797
H           10.90041704780136       -3.34022880870803       11.83599150778549
H           10.18006234170644       -1.30226398850370       10.66654729287626
H            8.82832093159974       -1.47392048245995        8.61829416052039
H            3.66354241779872       -4.30561696869294        1.61841685769995
H            0.48947336043274       -3.38326199198613       -1.35758683736573
H            1.44209815614406       -1.87665277937421       -1.39460966225876
H            0.35800865759857       -2.21457414950613       -0.01599126669578
