44
 energy: -9.159481923121 gnorm: 0.000749569028 xtb: 6.5.0 (97a52f5)
C            1.25000769913604        0.61509370621496       -0.30385092581270
O            2.35248683784862       -0.23865588335848       -0.09999190928781
C            3.06118325538356       -0.56770138475959       -1.26022116570191
C            4.19721338325060       -1.37233751523354       -1.12168802330764
C            4.97092457750174       -1.70576688727763       -2.20433466383389
C            4.64690981562981       -1.24130434375886       -3.48004316919793
C            5.51444212933012       -1.50884918409215       -4.63568859576775
C            5.93654786106096       -2.75669758863378       -5.09869274011444
N            6.62564463202553       -2.64980475498530       -6.22759613378965
C            6.67654933325847       -1.33664178016039       -6.50713855412730
C            7.25289221869093       -0.71175543125548       -7.62631570323278
C            7.18750005443785        0.64567665381579       -7.72671299633718
C            6.58821907835777        1.41342265914864       -6.71899719554087
C            6.03853125306506        0.83110937996753       -5.60356369991743
C            5.50960347453299        1.64144001469668       -4.49376553165700
C            5.98269431943189        1.44690254573568       -3.19446425033025
C            5.43584712694205        2.12476041048488       -2.13380451965314
C            4.39529002879990        3.03109641379504       -2.33131215023266
C            3.73757893489769        3.73054980602148       -1.21172880733113
C            4.10163740197326        3.36152865132559        0.18932116157804
O            2.90946764797030        4.59017432417636       -1.41919264075474
C            3.95246979551923        3.25915583044967       -3.63041935418068
C            4.49806042386772        2.58324156122419       -4.69451967951581
N            6.03068906313024       -0.57474250506185       -5.52456116439523
C            3.49288018541020       -0.47001229142783       -3.62757593917324
C            2.71773214585727       -0.13811173710401       -2.54590588229836
H            0.79825481434607        0.83501481058944        0.66433071649618
H            0.51018937987873        0.12131546016338       -0.93537079838610
H            1.58018991194850        1.54950801272707       -0.75987844141843
H            4.46034711979800       -1.71290492766574       -0.13609007750472
H            5.85572042686098       -2.30497996004152       -2.07684839483301
H            5.70042617809324       -3.70196723312074       -4.63212977467667
H            7.72249892782627       -1.31202069510979       -8.38454267067645
H            7.61755449799805        1.13942348598316       -8.58258557020370
H            6.58902432495011        2.48670649107943       -6.79581556199428
H            6.76998980681428        0.73108420118682       -3.03306755244282
H            5.80236851087719        1.94246834824005       -1.13907441750395
H            3.99225026924519        2.29007537751860        0.35531382475947
H            3.44850450291957        3.87655396523123        0.89181164704143
H            5.12812213816465        3.64714218185670        0.41563317748535
H            3.15551503127462        3.96634003316998       -3.78363362451962
H            4.12667990815107        2.74667072683954       -5.69116403805501
H            3.23119474289943       -0.11742002444351       -4.61024614995915
H            1.84566683064119        0.47268907584060       -2.69039805969282
