20
 energy: -3.099218766325 gnorm: 0.000821304222 xtb: 6.5.0 (97a52f5)
C            1.21688657581981       -0.14083964867275       -0.83376717817313
C            2.50430460006645        0.18177596219110       -0.83252373345563
C            3.24365106512917        0.71784489313055        0.31360603807147
C            4.53030533945959        1.22279150055908        0.07700385188755
C            5.44603110850573        1.77141760082477        0.95172118470826
C            5.33957798397921        1.96009283027339        2.28526554059582
C            4.37035779431250        1.69184597264239        3.19549038151933
O            4.65352400788060        2.03638750850733        4.40923695827893
C           -2.28226064295784       -0.39753058971470        8.05060160491199
C            2.69044526882581        0.70457918490112        1.54423635609038
H            0.73469687996395       -0.52950054165337       -1.70950438554287
H            0.60176879655637       -0.01515049048937        0.03337776681837
H            3.06612399100342        0.05054051625437       -1.74278113532822
H            4.84529476866232        1.17305665900968       -0.95423497504012
H            6.38182348339088        2.09783351641234        0.52483581408680
H            5.47581926312410        1.59819838461262        4.76262895828628
H            2.69947841404857       -0.32131756185860        8.63913183845540
H            1.66009952605985       -2.49676275246653        4.93271762636467
H           -2.69130619970279        0.50120595629079        8.31657701754586
H            1.74350797675624        0.31415109949487        1.77168047024578
