37
 energy: -7.609445622705 gnorm: 0.000972262809 xtb: 6.5.0 (97a52f5)
C            1.58834446233375       -0.07286726430193       -1.17387841041817
O            2.16171394731969       -0.48968654248797        0.04318747614814
C            2.97902123365464       -1.62097693262345       -0.04399673956332
C            3.54043916838718       -2.09950787525665        1.14306532193081
C            4.35364107965710       -3.20520994101300        1.15266666886539
C            4.64321105046058       -3.88452138114240       -0.02817284136583
C            5.51696008967147       -5.07228678012295       -0.06351410239572
C            5.96103214671988       -5.73953136868184        1.04204546236262
S            6.95327437598478       -7.05190113523452        0.57259500215309
C            6.70687841033480       -6.63973158342845       -1.11021850893444
C            7.28823196402210       -7.38983249101221       -2.19312889384646
C            8.11680113405172       -8.46934347269786       -1.85711781909053
N            8.82155937265852       -9.32475130744877       -1.50820811246591
C            7.08008607054460       -6.94252348990891       -3.46344685911732
C            7.51354839965235       -7.53380369302193       -4.70902719912254
C            7.81910869189525       -6.68340013870152       -5.78590221296736
Cl           7.58658863106583       -4.98850903437521       -5.60587138838467
C            8.27814637492163       -7.19127613038489       -6.98832759749852
C            8.41687502510691       -8.55348970541268       -7.15893682615407
C            8.06346929615995       -9.41452643837010       -6.13921534090409
C            7.58201609168949       -8.92319456304879       -4.93588456103381
Cl           6.82331684363717      -10.01987449846112       -3.84617274730962
N            5.94378219462029       -5.59162559880666       -1.26822758154207
C            4.09087783063480       -3.40795802092089       -1.21275866156703
C            3.27559067753554       -2.30318637992503       -1.22690926458097
H            0.96004220860748        0.79710134576715       -0.97702994578947
H            0.96990283177512       -0.87260545530130       -1.58416415602215
H            2.37496453896497        0.20888235642574       -1.87540771063809
H            3.31857849096603       -1.57513299853309        2.05578129347714
H            4.77824725934064       -3.54579481465940        2.08013211771749
H            5.73488111256832       -5.49718318629961        2.06079971042589
H            6.59918518870746       -5.98123435688628       -3.54817917467976
H            8.52320546841646       -6.50754396766739       -7.78339663053504
H            8.78038305862508       -8.94577891943411       -8.09439144575740
H            8.12443181121922      -10.48111370673309       -6.27689535211926
H            4.31897231809763       -3.92521306224774       -2.12848877200933
H            2.86719114997989       -1.95948746763560       -2.15954419726277
