37
 energy: -7.697930752565 gnorm: 0.000543313110 xtb: 6.5.0 (97a52f5)
C            1.66041972557168       -0.95707545031468       -0.62766295974901
O            2.34060491045897       -0.07802280633579        0.23765327212508
C            3.20039074883920       -0.69611862220869        1.15083388081972
C            3.89050875407197        0.12695829883315        2.04543497870040
C            4.75480140072981       -0.39601269616480        2.97477861796782
C            4.96742713246547       -1.77011867398558        3.05244682116297
C            5.88725323053364       -2.37342408404289        4.03528435597253
C            6.36420529221683       -1.73097671435042        5.14219390938497
S            7.38224199471619       -2.77919492165593        6.03156636614096
C            7.10669599538855       -4.04857823996623        4.85628156929402
C            7.69977488647609       -5.35891641714721        4.96357745141537
C            8.51752913986488       -5.60690218032506        6.07178230280683
N            9.19034239125177       -5.80676282044239        6.99730744463813
C            7.43315556078088       -6.27035210825261        3.99087423845859
C            7.89680769008318       -7.63374910636714        3.87371251959291
C            7.50045425610787       -8.38850580156991        2.76131535471370
C            7.91017995182834       -9.68952086877465        2.60544820378817
C            8.72884688368308      -10.27873590040986        3.55687549395619
Cl           9.24296580208373      -11.91207122185191        3.36173154547416
C            9.13370871743939       -9.55037051741480        4.66501666843866
C            8.72519628113799       -8.24998455434218        4.82019923955313
N            6.31256782158223       -3.67708780498501        3.88764826120318
C            4.28643046283339       -2.59271700230715        2.16091545217662
C            3.41999275758480       -2.07404410776117        1.23088863505154
H            1.02024150181816       -0.36519316202610       -1.28343755356529
H            1.03885429895243       -1.64053805897422       -0.04715960700307
H            2.37898777745252       -1.50856953333333       -1.23585895586247
H            3.72748935477094        1.18853637882688        1.98556641304630
H            5.28341794575986        0.26098297774996        3.64253312611358
H            6.13615340127399       -0.72591831771115        5.43517355303338
H            6.78830661664050       -5.93036407653843        3.20024529370318
H            6.86526486226716       -7.93508277313531        2.01989355071386
H            7.60506889963637      -10.26701185934966        1.74926123763701
H            9.76977057927169      -10.02146383635117        5.39527324308804
H            9.04787856304879       -7.69971164604052        5.68341388941292
H            4.45231688931873       -3.65463224977540        2.21526603063254
H            2.90719752206543       -2.73810952118742        0.55952615595911
