37
 energy: -5.062787763304 gnorm: 0.013490929975 xtb: 6.5.0 (97a52f5)
C            2.19191343075973        0.13744686388907       -0.27873749053895
O            3.01681699806261        1.20697394565116        0.11972501678137
C            3.81747019205849        0.82871580509635        1.13661328699562
C            4.73272506111228        1.52914188243232        1.79358804308457
C            5.49217127503805        1.09754483888576        2.77598400462049
C            5.50475509252322       -0.11688007572370        3.30136389305232
C            6.29535988720466       -0.55551247219445        4.34937450586634
C            7.10955241682410        0.15196271907829        5.06314154861112
S            7.97450224323899       -0.66429476916934        6.27633075670808
C            7.51959406652315       -2.28187181426858        6.02345800306236
C            7.98423971992930       -3.35081377367091        6.78966800493501
C            8.87276429444750       -3.05496636760399        7.83365483676434
N            9.59442881604421       -2.75687330801006        8.69133445527532
C            7.57566494905966       -4.58679043389295        6.50893653801942
C            7.88104591157176       -5.82388576188743        7.11696022690104
C            7.35865597043602       -6.98682387451731        6.60821517059822
C            7.62880006604934       -8.15393564527615        7.14861343779603
C            8.43287207911222       -8.23852033816545        8.24187494573946
Cl           8.78156433382408       -9.76853628142030        8.96166732704663
C            8.95349578217494       -7.09694532010775        8.76595759929710
C            8.69288596460831       -5.93135483879716        8.21649486553491
Cl           2.56557864672716      -10.94119205492444       12.01236136999093
N            5.03495716212656       -5.29771667538546       -1.30945646800867
C            2.74206978584239       -3.76681041422306        3.28836276336178
C            2.96319613609452       -0.88751045163932       -0.69684683593156
H            1.54935053913452        0.47098861683184       -1.09688536020120
H            1.57461653516726       -0.17942665588339        0.56571258490754
H           -2.53975691714997       -4.19221563328618       -0.82786514679418
H            2.79363753058723        3.14106400777148       -0.91442172264548
H            8.34490388301592        4.67251500340662        2.96045116345477
H            4.22183014229138        3.88774131951247        6.28892314388818
H            4.92187579843219       -7.76644071283605        2.57439193904718
H            9.62087023416451       -4.76631495180071       -0.94679307645336
H            8.89510032348425      -11.64865750827603        0.88624501005512
H           10.01749695840552      -11.71533060221067       10.98693374612967
H            3.29405306671707       -4.69030296440206        7.87549817574620
H            1.74408162008295       -3.98176128519519        3.45232974038105
