36
 energy: -7.623137521036 gnorm: 0.000604782968 xtb: 6.5.0 (97a52f5)
C            1.77942470570228        0.82980704757368        0.60782323651687
O            2.24878295793664       -0.13418783814653       -0.30531942159566
C            2.94517578571822        0.38030662178267       -1.40259163818797
C            3.43300661074907       -0.53349649490749       -2.34157395952471
C            4.12352157845911       -0.11569917933485       -3.45154509948915
C            4.35934457898150        1.23913825467695       -3.67376052393996
C            5.09700610078408        1.72881864758103       -4.85327673574132
C            5.36876333936520        0.97500540316952       -5.95979375062399
S            6.23173938339538        1.90762720901923       -7.10312652151743
C            6.18170718045853        3.28520590457609       -6.02320844195267
C            6.77541572466255        4.55689190762608       -6.35462914819571
C            7.39910044835811        4.66960985370062       -7.60260438657546
N            7.91391513976779        4.75777139233822       -8.64009313495317
C            6.70589844595003        5.56580346776143       -5.44701155850617
C            7.23078031048047        6.90802644225263       -5.55753684527189
C            7.91478758109007        7.39366510534767       -6.66635130391056
C            8.37474401266207        8.68433079443692       -6.67358191101201
N            8.22200279275517        9.54498879917612       -5.68011851760406
C            7.57064987005500        9.08144228039530       -4.62501851733291
C            7.06713800139539        7.81059077610109       -4.51197827786568
N            5.55637921472791        3.02835701142444       -4.90483452895696
C            3.88226416655364        2.15168394904079       -2.73793778002388
C            3.18928539923243        1.73845566532394       -1.62719518365454
H            1.25039801509443        0.31300173764899        1.41004191411279
H            1.08784481808410        1.50901389806919        0.10691338609743
H            2.62158828711403        1.37820843664818        1.03293007766823
H            3.25187972779981       -1.58016594890423       -2.17122174324191
H            4.49747681435779       -0.84145120159157       -4.15182765864038
H            5.08276741202863       -0.04603275852889       -6.11292115470660
H            6.19782371398609        5.33660959279367       -4.52747748986866
H            8.08535885968384        6.76129861508679       -7.51667836223582
H            8.90426427693485        9.05059861545447       -7.54122184029015
H            7.43874644628196        9.77476281893120       -3.80710647079586
H            6.54883835344616        7.50507914397869       -3.61918767209533
H            4.06854022965770        3.19877850509786       -2.90306051205113
H            2.83604971629112        2.46972552441576       -0.92337852404028
