40
 energy: -8.672961570291 gnorm: 0.000680168657 xtb: 6.5.0 (97a52f5)
C            2.25349155249426        0.98667468563068       -0.68704280646019
O            2.70626628978440       -0.19428177367756       -0.06780111997734
C            3.38086438496102       -1.08505380175976       -0.90927168875417
C            3.82922947344683       -2.28320312755984       -0.34716585542831
C            4.49834216184972       -3.21707717667024       -1.09840497826179
C            4.74857705347028       -2.99392695908897       -2.45003215435391
C            5.46556485718675       -3.97446997362736       -3.28736480732654
C            5.58722400435112       -5.29926773661218       -2.98552430128813
S            6.47767072019557       -6.09428980348478       -4.21429776365325
C            6.64311768049099       -4.58177612055360       -5.08408467470522
C            7.35482673192722       -4.50419597783886       -6.33475746664298
C            7.90462321240227       -5.67927086452471       -6.85703013186331
N            8.34584057287446       -6.67222110357016       -7.26915654488043
C            7.51344340813044       -3.33392565747711       -7.01564387484012
N            7.02520302270555       -2.12567348371381       -6.58602417844262
C            7.13816397619852       -0.85414934342348       -7.17180182810093
C            6.57840786993182        0.25095510318077       -6.53302528392621
C            6.68050721476254        1.50661361429832       -7.08071433456910
C            7.34525091186873        1.70329635057372       -8.28702217310097
C            7.45053342227054        2.98523881154304       -8.84537092686797
N            7.53567078022418        4.04634165444010       -9.30969070139788
C            7.90363263209026        0.60135412617006       -8.92727020959189
C            7.80243143969918       -0.65541746669733       -8.38087541021301
N            6.06104057166979       -3.58695537037654       -4.47049308993270
C            4.30951187545985       -1.79977293817102       -3.01267210382123
C            3.63862663329196       -0.86364647761050       -2.26470704443203
H            1.73324531030290        1.58542609802774        0.06220364287759
H            1.55799291217557        0.73911745945752       -1.49051177761420
H            3.10432269502844        1.55301721081176       -1.06895438666650
H            3.63602275794634       -2.45617994705943        0.69699768195292
H            4.84554886430614       -4.12559339132970       -0.63867231726524
H            5.18197844768452       -5.78886331239685       -2.12271794427497
H            8.05911996807024       -3.35446522015996       -7.94126026852603
H            6.52448330938696       -2.15635235970485       -5.70132173077638
H            6.06423176576423        0.10974027168359       -5.59865773473110
H            6.24612101395062        2.35566214851520       -6.58061804474466
H            8.41950828968178        0.74802370136755       -9.86112632675039
H            8.23984873475610       -1.49495415596794       -8.88984790496317
H            4.49979257617892       -1.62326892811993       -4.05684507400668
H            3.30924090101558        0.04707123550559       -2.73050236169428
