39
 energy: -8.501494291357 gnorm: 0.000984655209 xtb: 6.5.0 (97a52f5)
C            1.82396482425374        0.96703618646543        0.06250259648367
O            2.42202860048929       -0.30222391787779       -0.05817431764736
C            3.12489604589181       -0.51789293135963       -1.24776438846544
C            3.70868979534583       -1.77448279426039       -1.42954957534017
C            4.41570539992671       -2.07493537037288       -2.56726486228402
C            4.57073432480497       -1.12841386556126       -3.57670615516330
C            5.32841104287886       -1.41137421797336       -4.81045912444631
C            5.57782944469940       -2.66217942139634       -5.29374600186051
S            6.47576707046607       -2.55097016637907       -6.75000298342815
C            6.46814814005469       -0.80209373827577       -6.63231177675851
C            7.10402585553959        0.02344468281145       -7.61678793125492
C            7.72344161429677       -0.60932854726975       -8.69601654018557
N            8.23025335229216       -1.17129858540856       -9.57964679232438
N            7.12669520263067        1.32905565634024       -7.53878331684688
N            6.57907029882626        2.01138323037062       -6.54476803769704
C            6.57177231020375        3.40344045600549       -6.41876997287497
C            5.98816936956022        4.01825709663103       -5.31490124875958
C            5.98686688038409        5.38748805391845       -5.20314136445903
C            6.56744324121859        6.18188837782141       -6.18805144376155
C            6.56515677922315        7.57932644375066       -6.07087738215094
N            6.56277182025465        8.73670483138499       -5.97327599718964
C            7.15044158687579        5.56332293987564       -7.29046671041085
C            7.15270881547057        4.19417817698569       -7.40296153004206
N            5.83157359337723       -0.37843562369824       -5.57334901483716
C            3.99679349592788        0.12627753222257       -3.39735170553568
C            3.28676033654933        0.42965384072263       -2.26196127829601
H            1.30128555392955        1.00504572301139        1.01941873550958
H            1.10312090398656        1.11261763282759       -0.74353378493089
H            2.59245957116712        1.74122826739972        0.04400704744493
H            3.59055212419739       -2.50500247702183       -0.64838378517796
H            4.86814495942911       -3.04503536525854       -2.67715866042783
H            5.25673044379300       -3.58378314564980       -4.85094668996086
H            6.12464799984193        1.46838548424311       -5.81347289865371
H            5.54092756234421        3.40946428837950       -4.54868809497255
H            5.53648112680119        5.86310486180567       -4.34825680972277
H            7.60051607207479        6.17348458928076       -8.05527681650374
H            7.60214369496011        3.71099263192704       -8.25272869970129
H            4.11474494695649        0.86100891164198       -4.17456015553313
H            2.85195579907353        1.40699027195121       -2.15649253183547
