37
 energy: -7.345241493345 gnorm: 0.000620948114 xtb: 6.5.0 (97a52f5)
C            1.54750256831506        0.21421505534602       -0.42652167527429
O            2.12729278518554        1.28547020379952        0.27985766322428
C            2.90870027040225        0.92032801247417        1.37804311964016
C            3.49988820571161        1.95252300852116        2.11431539559163
C            4.27802311992215        1.68662362355258        3.21082263122663
C            4.50482220756745        0.37384153042602        3.62354015399489
C            5.32117637082060        0.10518610708782        4.78440567909309
N            5.88752214505530        1.03731294507448        5.50501884622646
N            6.56748569855502        0.48829759076871        6.51449628721479
C            6.61556671366369       -0.83231985100561        6.68011837617549
S            5.66465515468130       -1.51379840538498        5.38993172157395
N            7.26283395908636       -1.52049772872375        7.64276040877846
C            7.87737790446250       -0.77562120262979        8.52119766135163
C            8.59943582253728       -1.43812401813476        9.60556676271389
C            8.65415072612330       -2.82694496491774        9.68546890779669
C            9.33386620965120       -3.44210331960382       10.71097108709055
C            9.96869008602999       -2.68199680040684       11.67368581157903
C            9.92270826532114       -1.30329378195805       11.60705931957889
C            9.24476883456269       -0.68531646890161       10.58170726167519
O            7.90636478242217        0.58648313336636        8.52413868110284
B            7.30563496301291        1.41787573241756        7.48161741403150
F            6.38684472662591        2.29031765861796        8.02175182432069
F            8.27874905958172        2.08461381740310        6.77086889746486
C            3.92003162900965       -0.65970046669408        2.88973643124960
C            3.13959528198847       -0.39571616221113        1.79316234955410
H            0.96709536599249        0.62811407710635       -1.25281556492388
H            0.88052289242114       -0.34429175573389        0.23229424852740
H            2.33095547062425       -0.43029255160111       -0.82838038903139
H            3.32588938224486        2.96568840854516        1.79689098292477
H            4.72553781463856        2.48942793023675        3.77096644313934
H            8.15581419905079       -3.41007532417638        8.93042246125961
H            9.37065576755822       -4.51814119764703       10.76322073431132
H           10.50053066027911       -3.16510422654231       12.47711702945155
H           10.41818234291872       -0.71094586624621       12.35915762734877
H            9.20101267627461        0.38888918866471       10.51878361064009
H            4.08939446980284       -1.67625670136807        3.19977016286253
H            2.70091146789846       -1.21255722951904        1.24974163651777
