50
 energy: -10.228797119728 gnorm: 0.000691630424 xtb: 6.5.0 (97a52f5)
C            1.61738831763721        0.20719129289505       -1.01914281425754
O            2.37896734212416        0.12536591097889        0.16227000529095
C            3.05829224419103       -1.08412783513589        0.34520994362341
C            3.80838045462116       -1.22949431392117        1.51539499139696
C            4.49700084126674       -2.38613325279554        1.77875070524899
C            4.46162103384079       -3.45597414646884        0.88624198686903
C            5.19846167479154       -4.70197146518929        1.13951859566037
N            5.76006912233491       -5.43850213352916        0.15929874643711
C            6.38979206308099       -6.44953881932578        0.74240467969663
C            7.11976880426208       -7.50463414675623        0.04793876612220
C            7.38871681258672       -8.69901012332710        0.69920208148729
C            8.06303885487422       -9.72554440587809        0.07349073321026
N            8.31807547037279      -10.96849945154019        0.79517435570191
O            7.90434736246265      -11.07066272525336        1.96118644202250
O            8.93765139043967      -11.87707910349088        0.21978034150660
C            8.48859962927877       -9.56868623767216       -1.23328327313623
C            8.24297435710814       -8.39812048112337       -1.90577028439428
C            7.56167358355172       -7.34161743727356       -1.29134475181463
O            7.33527193028906       -6.16452887961884       -1.96564479835475
N            6.23575715519596       -6.39322203796354        2.11554098397679
C            5.47262635347671       -5.29549701786319        2.39045662483991
C            5.00297900861050       -4.90620914606152        3.72244919225589
C            5.83976396864163       -5.03024947373767        4.83036448704157
C            5.40342276447396       -4.67898218480817        6.08223363282278
C            4.10807295784362       -4.19469312060800        6.28930935687332
O            3.75009690163106       -3.85672000120804        7.59770637734835
C            2.44277269857363       -3.35507386119236        7.74607891363759
C            3.26644642353830       -4.08431846345544        5.17810757113390
C            3.70512780800214       -4.43489249211967        3.92633045516729
C            3.73299275546013       -3.30807213243246       -0.29110388729219
C            3.04183903571122       -2.15193130543398       -0.55681891250654
H            1.12126928212977        1.17865945084769       -1.03998728074390
H            0.86031311832730       -0.57850157023720       -1.02790414274524
H            2.27212378509495        0.12324713091811       -1.88792177233227
H            3.83338431763171       -0.40699712961208        2.20816928849840
H            5.08201713815512       -2.47270655764420        2.67750463734579
H            7.05742542603001       -8.84841591597246        1.71041430995663
H            9.01508703429673      -10.37883701956659       -1.70863934184193
H            8.57980121840602       -8.28468742134588       -2.92045427306468
H            7.69461417532805       -6.20981762921008       -2.87224709777123
H            6.59994863844625       -7.05081720662775        2.80385898178349
H            6.84238756765747       -5.39402175355571        4.68856443814849
H            6.05366329856247       -4.76773838023689        6.93452345341595
H            2.28403446858760       -3.11902200285963        8.79939993806199
H            1.71816058412384       -4.11059659732622        7.43856241420066
H            2.32675019049372       -2.44445750797068        7.15625992673684
H            2.26223544444304       -3.72255565052885        5.30224943733731
H            3.04274122243450       -4.35560923660176        3.08183213116297
H            3.72061333692009       -4.12322595062304       -0.99372186718102
H            2.48445063265945       -2.06973006053014       -1.47183442858821
