82
 energy: -16.847464677495 gnorm: 0.000298676344 xtb: 6.5.0 (97a52f5)
C            1.62203284815399        0.55039942915080       -1.64361342386578
O            2.34406802794429       -0.07445486336002       -0.60738739063193
C            3.00462249447996       -1.25284269453576       -0.97781486098676
C            3.77286035884906       -1.89557101777308       -0.00281098182519
C            4.45627444852629       -3.05144031204124       -0.28400004876447
C            4.39482698755740       -3.62696256963717       -1.55227249510023
C            5.15222917689458       -4.84204862634747       -1.88537582405030
N            5.68825332042162       -5.06657180482577       -3.10273521905066
C            6.38427747270833       -6.19520435346235       -3.00950193464770
C            7.11425894642245       -6.80428528512933       -4.11503911091866
C            6.80362760168646       -6.46918093307106       -5.43310022340709
C            7.47778399273455       -7.04296218266545       -6.48251974007514
C            8.50385266868752       -7.95998797271734       -6.25143555198299
C            9.23764170147308       -8.56870831688266       -7.35489085372008
N           10.44639559378934       -9.10936362081532       -7.23953712234386
C           10.77976094630546       -9.57451453601282       -8.46097972151135
C           12.09651376000357      -10.15133468561115       -8.76630144051823
C           12.68456307360400      -10.01545302726296      -10.02299362802284
C           13.93373515208483      -10.52450809019005      -10.27348430923738
C           14.66086058522753      -11.18277725808220       -9.27755529678871
O           15.93138298831139      -11.66579569434442       -9.61605229669080
C           16.63746402480857      -12.26830752573728       -8.55575132378557
C           14.07266250514580      -11.30707079802183       -8.01519497771547
C           12.82124661447010      -10.79788578623748       -7.76817673656818
C            9.71341652575705       -9.34792047104484       -9.36377080977904
C            9.55734278726478       -9.80745221628967      -10.74576896400991
C            8.88056667242189       -9.02452639932443      -11.67993296658540
C            8.70632669294580       -9.46223463821558      -12.96848264751296
C            9.19086154010364      -10.70683476148269      -13.38438725040151
O            8.97015132969256      -11.07634025729712      -14.71579475060693
C            9.47275200657783      -12.34484511235775      -15.06905208364464
C            9.85828890144147      -11.49509963580964      -12.44121941391313
C           10.03241933052990      -11.05529565394861      -11.15318769309157
N            8.76050756624788       -8.68109149506487       -8.64939555505180
C            8.82621329029092       -8.28185118307922       -4.93300447287510
C            8.13860948019838       -7.72327030899958       -3.88437259670681
N            6.30458165729405       -6.72839315817386       -1.73448122768329
C            5.49784970339176       -5.89937032432747       -1.01018754087494
C            5.02498682249000       -6.16761545901701        0.34944030817136
C            5.85360133728100       -6.80221678272711        1.27376644406065
C            5.40566036583668       -7.08819767102735        2.53863284455634
C            4.10561544629612       -6.76269511835105        2.93934258801991
O            3.72869423422395       -7.09197146848074        4.24604958122805
C            2.40014492764615       -6.76048700876815        4.58019788286360
C            3.27363218921117       -6.13517301120221        2.00639260151640
C            3.72372280106969       -5.84933126319067        0.74201895967396
C            3.63906276137176       -2.98487441394852       -2.53005835628522
C            2.95471243961539       -1.82695849719644       -2.25183826052042
H            1.16823845066702        1.46108443288320       -1.25032041609446
H            0.83213330162865       -0.11251725726346       -1.99936351994475
H            2.29622364871740        0.81585768080116       -2.45916081805959
H            3.82102804293498       -1.45648044031407        0.97782611440450
H            5.06031906291305       -3.51882254560234        0.47385036109997
H            6.01939135323067       -5.75529554609039       -5.61409783769455
H            7.23205999777488       -6.77456008929368       -7.49456524473782
H           12.15207391165383       -9.49025024142520      -10.79633193365202
H           14.38262812368663      -10.41899148342583      -11.24514574289305
H           17.61563054049856      -12.58124246523082       -8.92345606063101
H           16.09673002920367      -13.14614776147713       -8.19943051899071
H           16.77802580309369      -11.55009082815697       -7.74668760968673
H           14.60545866878459      -11.80322648099417       -7.22489095248944
H           12.38205571530366      -10.88712499619113       -6.78976947646154
H            8.50126185492478       -8.06408839459217      -11.37738495529845
H            8.18840257181128       -8.85303155978070      -13.68774162360882
H            9.24369101598025      -12.52921209635925      -16.11950093793268
H            8.99536736527711      -13.11643153140117      -14.46334116266532
H           10.55511498539241      -12.36724391480987      -14.93461752944297
H           10.23829705200045      -12.45949423457112      -12.72439757210596
H           10.53394331091799      -11.67951211373463      -10.43403795412083
H            7.82835909449838       -8.43085440060154       -8.97807525180919
H            9.62157920901570       -8.98335512478483       -4.75179568818837
H            8.39769874627638       -7.97728278477181       -2.87200507446989
H            6.66290127922739       -7.63324890627894       -1.43043442436601
H            6.85686356372196       -7.06032641993856        0.98280536321690
H            6.04935104207320       -7.57428816215955        3.25002292426240
H            2.21381913866502       -7.06802891555660        5.61005280932477
H            1.70789115866441       -7.28924749338684        3.92341704742466
H            2.25445012050953       -5.68220900317241        4.50209444228639
H            2.26717525632050       -5.87506773314684        2.27855287360182
H            3.06617651661398       -5.38245223376000        0.02935721223649
H            3.60279140598556       -3.41379590361277       -3.51643521643849
H            2.37706256251144       -1.35686221686926       -3.02641373445443
