79
 energy: -16.123015595467 gnorm: 0.000403408021 xtb: 6.5.0 (97a52f5)
C            2.04089284202244       -0.63685153440520        0.42958359060446
O            2.96356592065641       -0.15687655897890       -0.52097542272952
C            3.46288089688072        1.12599396348280       -0.26175475723926
C            4.40034722406011        1.64631087388336       -1.15841874249354
C            4.94074491342673        2.89429526262304       -0.97749926979637
C            4.56063150652142        3.68720858727006        0.10430022409161
C            5.15104143162867        5.01370707133301        0.33343409849987
N            5.38024783932336        5.51835972112536        1.56445617316131
C            6.00451947207421        6.67968467871017        1.38753669841779
C            6.41861028441501        7.56934707936248        2.44488927314544
C            6.06062501560198        7.47182817935795        3.76045653039727
C            6.59407354221490        8.49713705856846        4.57349226009817
C            7.38371190335794        9.38544531825463        3.89606910834154
C            8.06151991209457       10.52679972035400        4.46641262700130
N            9.04687973432604       11.19207329903496        3.87085004817383
C            9.40230491942507       12.18924451380151        4.70727578823527
C           10.52957732878972       13.09377945471523        4.44152693809965
C           11.31402236799667       13.61085981886009        5.47142370780405
C           12.38696672744796       14.42122633254091        5.19838705261222
C           12.73452192156263       14.74477318245269        3.88373889903990
O           13.84779269582713       15.57361282475972        3.69425317070260
C           14.17348499297358       15.82961704914156        2.34745444771045
C           11.95223314643495       14.21502295267105        2.85313418125566
C           10.87841240114076       13.40457165759359        3.12958292084122
C            8.57807924654272       12.16261528730865        5.85726355486480
C            8.49023399993224       13.12788577299542        6.95470063005798
C            8.18107904360035       12.70476226079144        8.24669295415045
C            8.05853390323986       13.60886705000505        9.27132346128230
C            8.22891190439362       14.98003804980444        9.05399840005300
O            8.08082832214057       15.83365131676926       10.15298345701348
C            8.23430784750005       17.20434525007475        9.86326755268026
C            8.53033529168731       15.40203126385989        7.75510961596602
C            8.65417437601145       14.49627436134606        6.73181224793763
N            7.75771703796740       11.08219116839433        5.69788784924866
S            7.46066777074927        8.94627080382020        2.21047564120431
N            6.18490104387667        6.95094971457780        0.04394382628311
C            5.62210897811713        5.91778520122198       -0.64904238484840
C            5.46195836063466        5.87672423966069       -2.10325739649649
C            6.43882267594536        6.41998604549567       -2.93657712205659
C            6.27776877327125        6.42263106413313       -4.29902400683389
C            5.12929774492307        5.89181345987369       -4.89530168295973
O            5.04306718609131        5.93921825056106       -6.29123171910356
C            3.84640010512299        5.42386806807250       -6.82840566748003
C            4.14728949529294        5.35551895989911       -4.05618148006006
C            4.31059845732869        5.35267594766156       -2.69376429729734
C            3.63683488956364        3.16779953907563        1.00781591446290
C            3.09475560528816        1.91839510035402        0.82975495640712
H            1.72822790614648       -1.63925663185466        0.13391238964041
H            1.16472597554715        0.01236731686541        0.45854637441297
H            2.51227062214763       -0.68941389784095        1.41201532139371
H            4.69367282175337        1.03939170442683       -1.99648077150098
H            5.67635479876603        3.26862840738402       -1.66782429070018
H            5.41770958352120        6.68942511846695        4.13189247729795
H            6.40923441382813        8.56795707315878        5.63363679775894
H           11.07714570899481       13.35442448910207        6.48915987247554
H           12.98878011354708       14.81932652521677        5.99593377382655
H           15.05955527770136       16.46529981382576        2.31968544575884
H           13.34940732160598       16.35042512798321        1.85792171996636
H           14.39456817021430       14.89295538598183        1.83367372200958
H           12.19387644268266       14.43951621481962        1.83047268271840
H           10.28929170098183       12.99161039434109        2.32926065703914
H            8.04530773137817       11.65353873374375        8.43190539455311
H            7.82342027641122       13.27824830560462       10.26738907539462
H            8.08997575208663       17.77181644911641       10.78363364986360
H            7.48477569793982       17.51659039026883        9.13462869746164
H            9.23963513798977       17.39477933103093        9.48503483016647
H            8.66281747141861       16.44867321280185        7.55115309047380
H            8.86802929170302       14.83743135299575        5.73370328883420
H            6.98771481683971       10.81413709000275        6.30992611567889
H            6.57622666998636        7.80851076194699       -0.34383982749914
H            7.32854370777175        6.83391240114222       -2.49519378676615
H            7.03532267651543        6.83949924501144       -4.93860956567448
H            3.88094084844826        5.52592208304957       -7.91391368552977
H            2.99423629567662        5.98859879305225       -6.44748157043555
H            3.74981042466398        4.36701899298145       -6.57593324259852
H            3.25022904906283        4.94287528887370       -4.48003150901962
H            3.53771821893703        4.95349836412530       -2.06010705881269
H            3.35407378319283        3.76649825742842        1.85617716829964
H            2.38135029315378        1.54682522272969        1.54222891304958
