42
 energy: -8.682422361701 gnorm: 0.000796646368 xtb: 6.5.0 (97a52f5)
C            1.36912591827079       -0.22264417818233       -0.36439874147558
O            2.22972491428556        0.43783125947924        0.53598102876357
C            3.01253612082921       -0.41162325857491        1.32936275554096
C            3.86271436590026        0.17895616886279        2.26932268335973
C            4.66383075171667       -0.58312049418132        3.08206144062865
C            4.66203708216573       -1.97396315698013        2.98687804783910
C            5.51065299435594       -2.77055136895378        3.87133186854000
N            5.85949081056508       -2.38420933636893        5.09372222604628
C            6.61069590461049       -3.36450787526606        5.62811964733537
C            7.17612181428837       -3.29692037235664        6.97857336862210
C            6.55066133425104       -2.51484957913078        7.94730390337210
C            7.05783167228013       -2.42870076682186        9.22432114067540
C            8.20987674703130       -3.11717390717600        9.57898580703487
C            8.77158715003256       -3.00838930792188       10.95383632051984
C            8.85357132330481       -3.87399592088427        8.60968237531792
C            8.34932865990788       -3.96354486273261        7.33153243947187
C            6.73454440809137       -4.42498691626550        4.69307564612880
C            7.34433939509464       -5.69343610539579        4.75875499873402
C            7.30214741005889       -6.49234333667000        3.65932766599424
C            6.66455556917891       -6.05528225774209        2.48148415412192
C            6.05573043159421       -4.84583376446987        2.43658200179915
N            6.05354329480231       -4.02702444280004        3.55762273828956
C            3.80318653342223       -2.56897407866604        2.06253726585129
C            2.99954303852684       -1.80789522217826        1.25008550787654
H            0.80108668192894        0.52627294169054       -0.91790337887939
H            0.67245154556603       -0.85795832330486        0.18402594818247
H            1.95073125867868       -0.81568979474432       -1.07123497540345
H            3.87283751102244        1.25183693690385        2.34296125389006
H            5.30901609416782       -0.11478964325919        3.80453434094284
H            5.65713113981742       -1.97848489612263        7.67999698221413
H            6.56190425826851       -1.82087028166148        9.96151019992649
H            7.99351404950543       -2.77075459114786       11.68014679235277
H            9.52776080617526       -2.22405511298688       11.00186892739300
H            9.23684478102273       -3.94516417218991       11.26285469225789
H            9.76247365374840       -4.39012968125166        8.86776024676007
H            8.88573829757166       -4.51966287508310        6.58435160120581
H            7.80202509419003       -6.03098962470154        5.67038904196973
H            7.75981029229597       -7.46765294560457        3.68448125978644
H            6.66364740134188       -6.69069840013763        1.61125606271611
H            5.59609574488394       -4.49098739913880        1.53293164236563
H            3.74461380665823       -3.64156415677466        2.01895516594455
H            2.34818993859712       -2.29552489911421        0.54823790598385
