51
 energy: -10.207095439608 gnorm: 0.000866156335 xtb: 6.5.0 (97a52f5)
C            2.04471770695395       -0.90373013359626        0.90203866729915
O            2.23445227067163        0.25381269845695        0.12062111937449
C            2.96449786114871        1.27191359966488        0.74625383924151
C            3.14712749468791        2.46461075502559        0.03838836255457
C            3.84586535676532        3.51464156405572        0.57956289304448
C            4.39711756084057        3.41949210924908        1.85608894406004
C            5.13825202991650        4.52358646106525        2.45583670462830
N            5.74487486558915        4.45243571735454        3.63493192379475
C            6.31457360288958        5.65704290930646        3.85116681890004
C            7.03038616867541        5.99956407871448        5.08959852688164
C            6.94258675817864        7.26877543772819        5.65935228922974
C            7.60761448908896        7.56351041518696        6.82281727015636
C            8.38560684812243        6.60322332701531        7.47600324105671
O            9.03710419896966        6.99012379303409        8.65434879897914
C            9.82325636846611        5.98562139814817        9.25323734592143
C            8.45696577514418        5.32656037435305        6.91019605781094
C            7.78961235695575        5.03389842005011        5.74594062233069
C            6.06369087053648        6.50651469385105        2.74957523707829
C            6.55119756793512        7.86454679859397        2.49916113489717
C            5.75609649734886        8.78517258414217        1.81796809146733
C            6.20915397648345       10.05603522379184        1.56861174644099
C            7.48118610303817       10.46691950933132        1.98009772278044
O            7.86243191333208       11.78193741641388        1.68922470972445
C            9.15945448681034       12.13045529088466        2.11627100863751
C            8.28161804544720        9.53678914979385        2.65114007628393
C            7.82662301434867        8.26609518118622        2.90003176621874
N            5.30291668656691        5.77297179922374        1.88454051196017
C            4.22277154076978        2.23176182122715        2.56371416010870
C            3.52231733826675        1.18074595459097        2.02551914627082
H            1.44445511378855       -1.61345914506687        0.33124172887272
H            1.51264857875168       -0.65001511221627        1.82041874105793
H            3.00875462782211       -1.36030261863975        1.13114566572274
H            2.72114411437034        2.54074670280143       -0.94662802493156
H            3.97262957622103        4.42203377558449        0.01667287311732
H            6.33819781641315        8.01742584623831        5.17762722333034
H            7.54217559343004        8.54556283174851        7.25648967277991
H           10.29034995366934        6.39825631567975       10.14858671426630
H           10.60508734214456        5.66378474885604        8.56366372657433
H            9.19409825624176        5.14178462943440        9.54021475962487
H            9.03890612617988        4.56154914150988        7.39063093901854
H            7.84742560295553        4.04742695219300        5.31955554892336
H            4.77237156311175        8.48823639304245        1.49872073306103
H            5.58969960958151       10.76538493487465        1.04912039426843
H            9.35176884541930       13.16583594486270        1.83221847696308
H            9.89642969313048       11.48894923859964        1.63112518078886
H            9.23011625112028       12.04294749374973        3.20158997931533
H            9.26627118923366        9.81704847650470        2.97772278665344
H            8.45888760281903        7.55709795764922        3.40574276855391
H            4.96585750047307        6.08516679512507        0.97475015348480
H            4.64834032601051        2.15350304626650        3.54903831500389
H            3.40403496316107        0.27809730335320        2.59694290641729
