43
 energy: -8.827007315314 gnorm: 0.000721402662 xtb: 6.5.0 (97a52f5)
C            1.13307328854803       -0.47681212190413        0.24042137114184
O            2.12136572565359        0.48695724529979       -0.04313466221351
C            2.94141424800636        0.82595596877661        1.04211367837380
C            3.92850473446172        1.79248577936857        0.82958296936340
C            4.77353231536042        2.17934452173438        1.83922401647135
C            4.68002047643354        1.61126545668312        3.10832999948199
C            5.58721491819870        2.05454451091763        4.17276013239732
N            6.08621912523289        3.30094160638800        4.24850528588801
C            6.85375882949648        3.35873181902297        5.33243521146294
C            7.57844101788249        4.56086196247588        5.74005837677372
C            7.07137969985859        5.82057213546088        5.42435997483540
C            7.74002042451475        6.96066975498511        5.79211245203908
C            8.95301081426402        6.89717415039945        6.48476126553550
O            9.56672857260060        8.10926855338586        6.82790268231322
C           10.76101617776022        7.98101418987828        7.56449662640192
C            9.46898464148812        5.63183982512727        6.78208599087219
C            8.79733219982932        4.49171713650882        6.41532414569679
N            6.85968370286057        2.13497922039290        6.01818851614509
C            7.41375144010380        1.67154213900201        7.20466801586447
C            7.22999677669745        0.38385187193644        7.58206625396830
C            6.47310925337747       -0.49661761220621        6.78273294126904
C            5.89031810982129       -0.05882505102431        5.63559921579274
C            6.06619304554745        1.28870521059939        5.26436390958356
C            3.68664443825022        0.65649421001483        3.32941706175411
C            2.83860689889547        0.26979069724499        2.32063766185785
H            0.55820023262805       -0.66289775025489       -0.66774547700737
H            0.45978708309215       -0.10478476001923        1.01414443752538
H            1.60240121916726       -1.40964328961535        0.55656221538190
H            4.00977814249238        2.22963799325071       -0.14976578994769
H            5.52620645467769        2.92773089233590        1.66248583513344
H            6.13917953391613        5.88396290349628        4.89063550769653
H            7.34062006389175        7.93059657972569        5.55412166975912
H           11.12786297375402        8.97924040824907        7.80702509698326
H           11.51384863190112        7.46383414514524        6.96820039685085
H           10.57043315702932        7.44048995450287        8.49281179201211
H           10.40824618362810        5.54718564734236        7.29742391176311
H            9.23021917679405        3.52790019333476        6.61455333628531
H            7.96046942550897        2.35790669023961        7.82420631908124
H            7.66372878362242        0.02539374184902        8.50084179331917
H            6.35406731339575       -1.52276541582812        7.08948281995927
H            5.32984378345435       -0.72698932845987        5.00748824703263
H            3.56311455451430        0.24818862694270        4.31658203258085
H            2.08150241138029       -0.46578041270531        2.52229276252026
