88
 energy: -18.936362032083 gnorm: 0.000625969298 xtb: 6.5.0 (97a52f5)
C            4.47060265222394        1.00087186591803        2.40361584176363
O            4.28473692230604       -0.29615379660634        1.88340962827261
C            4.82924736055462       -0.50166642726124        0.61116669515263
C            4.67610328621977       -1.76879403014472        0.03745897403188
C            5.17855859946535       -2.05061430886572       -1.20742513393315
C            5.85894569960014       -1.07942723113365       -1.93768490409549
C            6.39356015716424       -1.37874565025662       -3.27417217645859
N            7.02051681842512       -0.40181732551234       -3.91112237956266
C            7.47217052629783       -0.72580258032378       -5.11294383072629
C            8.19646243510588        0.31038139375985       -5.86374625049284
C            8.67338791707217        0.05938374294191       -7.14782013493222
C            9.35558743528456        1.02438834900965       -7.84427163376897
C            9.59571304705080        2.28606457428948       -7.28855561643007
O           10.30363959776831        3.21078240295237       -8.06394099541074
C           10.53253862482720        4.45381515526362       -7.43953387658869
C            9.11335865840420        2.53315077199435       -5.99822782099902
C            8.42980169887256        1.56518123458670       -5.30548944641514
N            7.32944511281880       -1.90816754247930       -5.69104084878998
C            6.69609884571747       -2.80994142105332       -4.95644270251512
C            6.52648065992126       -4.15191120403167       -5.53117685290067
C            6.86089927743918       -4.41071992479091       -6.85770597857473
C            6.70867743688141       -5.66692055087138       -7.39012049643754
C            6.23778591558056       -6.72926030874291       -6.61713629050641
N            6.02954609288647       -8.03225804034541       -7.17717080553460
C            5.43219103057943       -9.07759789485486       -6.39335973251012
C            5.98712248393767       -9.49964277389723       -5.18784030827676
C            5.37991186821362      -10.48507058513358       -4.44474301207671
C            4.21398036749436      -11.06974859479207       -4.89653878238251
C            3.66678616816886      -10.67750778477314       -6.10180580102970
C            4.26982831792481       -9.69810064010568       -6.86886494140333
C            3.69890534150116       -9.25430945026344       -8.21820639246486
C            2.82688838130974      -10.34848717475108       -8.84847448135136
C            3.15940140538044      -11.62428309495524       -9.25440164137593
C            2.17646264341281      -12.43201681775091       -9.79561440131904
C            0.87653600261729      -11.97091340285890       -9.92922321051999
C            0.53573517968817      -10.69604187979321       -9.52446036244569
C            1.51801703511615       -9.88095906818049       -8.98089274644546
C            1.44115183297479       -8.50295785134877       -8.47439649975205
C            0.36749092655780       -7.62753780537298       -8.39253717345676
C            0.57102359937030       -6.37011774113488       -7.85921455050405
C            1.82491318495190       -5.98419202938349       -7.41227343738961
C            2.89579797445818       -6.85276112551387       -7.49264041742848
C            2.70164036904902       -8.10954595448976       -8.02388547906626
C            4.83281577838761       -8.82498906402349       -9.15318210413639
C            4.75657178963438       -8.99560697310888      -10.52304928279973
C            5.81268966363919       -8.64510852413511      -11.33985760439005
C            6.96839371717287       -8.12840128278088      -10.78991332475591
C            7.05703064319470       -7.93745215522863       -9.43037796476758
C            5.98364135287320       -8.24779778190077       -8.59846718571471
C            5.88449442090722       -6.45637195758244       -5.29424225400529
C            6.02461569172254       -5.19879483541587       -4.76289207371692
N            6.21076402274738       -2.60344921661830       -3.74178819355945
C            6.01571716748742        0.18389581142333       -1.37227494925325
C            5.51428515617860        0.47028946885474       -0.12702066897697
H            4.00729384292783        1.05081334314141        3.38991520757253
H            3.99398577045570        1.73567152847899        1.75325752295946
H            5.53586911333841        1.21359370724388        2.50375290865582
H            4.15004782215378       -2.52102421030036        0.59802918952168
H            5.05184672775248       -3.02777057765105       -1.63915857843191
H            8.49814142929847       -0.90778396663741       -7.58498863044544
H            9.72312654533496        0.82672946410647       -8.83557188733769
H           11.09456935053005        5.08992432399678       -8.12466498006557
H           11.11802322907303        4.31201177474710       -6.53001735075662
H            9.58192381573794        4.93733652701694       -7.21024878837884
H            9.27976774920771        3.49116958525387       -5.54066045693222
H            8.06497644629434        1.76249897238230       -4.31281230348756
H            7.23627537530287       -3.60376277794315       -7.46205868283643
H            6.93290504122916       -5.82570813753362       -8.42762639474675
H            6.90559670951509       -9.05077705977940       -4.85174217212472
H            5.81442868521124      -10.80091051472143       -3.51050874406714
H            3.73505981760007      -11.83837257197817       -4.31251018605924
H            2.76092627163509      -11.13693568228304       -6.45654823158120
H            4.17143140649037      -11.97275121134228       -9.14459865847064
H            2.42454200586030      -13.43037382340849      -10.11648353508866
H            0.12324786130952      -12.61444996610448      -10.35316413727069
H           -0.47112661085894      -10.33061698436509       -9.62346301406354
H           -0.60320445010449       -7.93472963232829       -8.73954510268157
H           -0.25487828569024       -5.68149158523953       -7.78872369116446
H            1.96721765037464       -4.99972866974753       -6.99782467803081
H            3.87338119065771       -6.57304121173395       -7.14716209101903
H            3.86188199982869       -9.41442134845350      -10.94937659259395
H            5.74071143214199       -8.78943771873219      -12.40537432049390
H            7.80242222675280       -7.87786900581014      -11.42477426354364
H            7.97076621018558       -7.57491313561567       -8.99268164495917
H            5.46680709626910       -7.23984138271175       -4.68944385060410
H            5.74717496297644       -5.00347092749842       -3.74203997386769
H            6.53954744732688        0.93730004642157       -1.93385889265920
H            5.65118581937207        1.45407186080469        0.28316301816784
