97
 energy: -20.281973004033 gnorm: 0.000603065505 xtb: 6.5.0 (97a52f5)
C            0.71874242190646       -1.94505184165462       -1.72935585219489
O            0.76807760856684       -1.60722857283566       -0.36110065137323
C            1.74357758671696       -2.28862632940455        0.37558358455738
C            2.64621073413773       -3.20961028073850       -0.16083590289807
C            3.56190166113045       -3.83734734474190        0.64324566955903
C            3.62554344072085       -3.58820910773324        2.01408379213634
C            4.61952919812713       -4.32979328024373        2.82033349381196
N            4.31016327775835       -4.63403739276341        4.07072267822987
C            5.23405016333631       -5.32204058865997        4.72186109750117
C            4.97614121621585       -5.69022747702130        6.12975532519245
C            6.06991962343487       -5.89242930160602        6.97079007082718
C            5.90713699368604       -6.21130523527399        8.29303975224853
C            4.63204597365507       -6.34777707891699        8.84530545814845
O            4.54181913281353       -6.66421007824291       10.20562688030087
C            3.22590770215112       -6.78925036313272       10.69678272233060
C            3.53558943387483       -6.16221559619663        7.99781296261920
C            3.68150790113515       -5.85316916555346        6.65983496676953
C            2.45926941039328       -5.70443701712317        5.82459823709144
N            6.40579816666779       -5.68348067672069        4.22080814259372
C            6.61016104844810       -5.32867507069934        2.96100365337591
C            7.89638108593638       -5.72942365929014        2.35654174101747
C            8.56681195077844       -6.83284832360646        2.88179598619440
C            9.75862339153972       -7.26181765508294        2.35776572517355
C           10.34478093986395       -6.60649704474156        1.27701143538903
N           11.63304134301081       -6.99864836340396        0.78529758066903
C           12.41451319028909       -6.11694886643782       -0.03976119857131
C           11.95916843549496       -5.66298457759379       -1.27552865371241
C           12.71265422160324       -4.78528301774299       -2.02003359697409
C           13.93763498981684       -4.35646927977813       -1.55005247665180
C           14.41805243035556       -4.82871223542267       -0.34506927271986
C           13.68182327158896       -5.72229764030748        0.41050273170256
C           14.20941643114790       -6.29846488894920        1.72727903513403
C           13.82068763547540       -5.39721774591907        2.90235412007601
C           12.57219940533762       -5.03751354263980        3.36238539673147
C           12.47372162584843       -4.20585132776783        4.46074488990061
C           13.61472242660593       -3.73932420326569        5.09428443546290
C           14.86978827632627       -4.09573566985638        4.64145716409988
C           14.97201711242907       -4.93032441643407        3.53733466084297
C           16.15459527543943       -5.46446536912963        2.84628922989831
C           17.50569647163133       -5.27973222283790        3.10168669132108
C           18.42891398092226       -5.90174919855502        2.28541892777958
C           18.01680818181834       -6.69822353183746        1.22888585396164
C           16.67161753106763       -6.88790616896281        0.97141798561708
C           15.74277503492514       -6.26947590612183        1.78248695593523
C           13.66425210467403       -7.71349082988460        1.93902377055162
C           14.38265587365185       -8.68394704994294        2.61234119136593
C           13.87217607751112       -9.95604618194709        2.77756821035870
C           12.63138312695977      -10.27421246842791        2.26302508565147
C           11.89650092087133       -9.31863610350225        1.60043525596809
C           12.38915998892226       -8.02485225426543        1.44880658985244
C            9.68735140120467       -5.48406745330217        0.77452554582913
C            8.48757299995824       -5.03181540179364        1.28696886355155
C            7.85850821861149       -3.81845423270755        0.69787932933817
N            5.74364272804530       -4.67011779919501        2.20921192675600
C            2.74551044866433       -2.63958874498850        2.56839181378327
C            2.78315937571417       -2.26837851137303        4.00852583203479
C            1.82344345559682       -2.02504307188643        1.74638500901431
H           -0.08373820767229       -1.37661840143719       -2.20133045637388
H            0.50996613101091       -3.00965477058404       -1.84390053863248
H            1.66262519576500       -1.68794813471104       -2.21200112977908
H            2.62331916726350       -3.43224945525201       -1.21201395495337
H            4.25001976366739       -4.54958312677698        0.22233511808708
H            7.05835528932747       -5.78549933157981        6.55943340841386
H            6.75991598179376       -6.35872659305121        8.93184005445346
H            3.27060830426389       -7.03551368833650       11.75847084991807
H            2.70577777166952       -7.59152408449392       10.17157271999364
H            2.69135900457148       -5.84589628212079       10.57684046060271
H            2.54151784616049       -6.26881208650822        8.38936456400473
H            1.67802683869899       -6.39523274850213        6.14390633720512
H            2.66941591050773       -5.91079660681182        4.77544979048221
H            2.06312026121026       -4.69205773678398        5.89886028450287
H            8.12756118705056       -7.34844037199548        3.71781074407237
H           10.26438913375645       -8.09617331363484        2.80733631972085
H           11.01797646723975       -6.02558802593504       -1.65064632598747
H           12.34715460177203       -4.43277604818105       -2.97058663291324
H           14.52485111600120       -3.66260468985878       -2.12889184942028
H           15.37955493501874       -4.50635118392392        0.01432626848668
H           11.69882358821768       -5.41123245616202        2.86202480812071
H           11.50146582410034       -3.91853266179845        4.82609020305671
H           13.52227469208148       -3.09213089363381        5.95098121364281
H           15.75994362883588       -3.73927143466566        5.12896280882104
H           17.81694867362818       -4.66040840105791        3.92426384290071
H           19.48160274114451       -5.76492204203430        2.47107831975444
H           18.75149680003079       -7.17453955826443        0.60071428186331
H           16.34099612738923       -7.50479740775301        0.15422662777938
H           15.35208800797654       -8.43756394193992        3.00858437635509
H           14.44591292766452      -10.70273139890238        3.30159075903359
H           12.23867347945959      -11.27096452265609        2.37994283149033
H           10.93652243782060       -9.56291282229586        1.17989185307107
H           10.14193666372675       -4.92341626230036       -0.01870345189458
H            8.59900507635802       -3.18131297524395        0.21301467487893
H            7.36424558716048       -3.22359232438173        1.46611982805319
H            7.11057720701854       -4.09461514369270       -0.04576653284586
H            3.72879841928857       -2.55399767859227        4.46849194881638
H            1.97764825818660       -2.75879866539697        4.55468402703589
H            2.66876898581691       -1.19139664200675        4.13712620564262
H            1.13889012063214       -1.30898932919520        2.16301548912392
