47
 energy: -9.611435587315 gnorm: 0.000701183130 xtb: 6.5.0 (97a52f5)
C            1.38753607550050       -0.55560327100715       -0.92673758456403
O            2.29815487165973        0.01678674274242       -0.01590628282298
C            3.10016291043638       -0.90453619828046        0.67015597527197
C            3.99887116091495       -0.40057795300777        1.61516022882269
C            4.81766945572774       -1.23517358181834        2.33297276122132
C            4.77126152810383       -2.61569445482799        2.14458668798748
C            5.65243447640984       -3.52596729831905        2.89201613843594
N            6.21006312638895       -4.62879627289221        2.35066830684597
C            6.98926919935217       -5.16008988063348        3.28630048733448
C            7.77544896976479       -6.37457933861730        3.09658571017715
C            8.59334901938169       -6.88022536475606        4.10546725950856
C            9.32860716403225       -8.02718054789650        3.90316921280131
C            9.26177450625536       -8.68933813297309        2.69293578162179
C            8.45647527058929       -8.20136646990149        1.68282122996478
C            7.72011271255240       -7.05515214215894        1.88232846631020
N            6.94698123494137       -4.41590996773708        4.45279656559326
C            6.09011519622259       -3.37819127298387        4.22881312293381
C            5.68401077922525       -2.38849443280966        5.22921002980569
C            6.59874604602549       -1.92292568025217        6.17260973191795
C            6.22513983568956       -1.00210478039605        7.11851964647242
C            4.91760261832591       -0.50784650574954        7.17404284116165
O            4.62152526197222        0.43173229537288        8.16807226415306
C            3.28637933034941        0.88359005838111        8.17583176799250
C            3.99900106501693       -0.98711409940637        6.23429239721063
C            4.37507270371861       -1.90727576597795        5.28824935145794
C            3.88968790491086       -3.12186284317247        1.19251590633961
C            3.06805380778355       -2.28871801216233        0.47353542138171
H            0.80657427222519        0.24455661001386       -1.38749217858463
H            0.70753583683069       -1.22762657919975       -0.40098801727618
H            1.92857698425443       -1.09245531880873       -1.70737991984157
H            4.03467347913712        0.66362457859939        1.76693684925970
H            5.51269407264595       -0.82773987434144        3.04639384816047
H            8.64967058893104       -6.36662476086407        5.04820968133543
H            9.95760555293457       -8.40831937856369        4.69100649157917
H            9.83815389856483       -9.58635235360257        2.53654606879794
H            8.40415444052407       -8.71747075032022        0.73814095189115
H            7.09065363466039       -6.66879496123157        1.10001501567230
H            7.41510084290010       -4.62510390129318        5.33386979730816
H            7.61073051155997       -2.28727161302410        6.14095488558340
H            6.93635586942686       -0.63935610190434        7.83908679667313
H            3.16548548484072        1.59815651421773        8.99117244353349
H            2.60911787162426        0.04412531864108        8.33985474273091
H            3.05626483364751        1.38181095432076        7.23304501045963
H            2.98515638588888       -0.63106626523098        6.24915479215453
H            3.65481516285631       -2.27302008108512        4.57701020669793
H            3.86154118030047       -4.18544515219099        1.03039763993660
H            2.39524286500494       -2.70921171288302       -0.25116853140277
