40
 energy: -7.658233965822 gnorm: 0.000531441160 xtb: 6.5.0 (97a52f5)
C            1.96175341172408        0.72021149078109       -0.67286212410331
O            2.13429948845079       -0.52069237335226       -0.02703907466481
C            2.89477463283965       -1.45486414539507       -0.74190554430267
C            3.09009957874668       -2.71229895587335       -0.15950867965207
C            3.81568276358676       -3.68673572318314       -0.79606038712873
C            4.38556759861431       -3.45035480483512       -2.04947136414933
C            5.14494311830015       -4.46572632195983       -2.73384316089931
N            5.69560896599445       -4.28957931708855       -3.89252482384787
C            6.38341050695458       -5.39750481502297       -4.39582065650991
C            6.95287452548109       -5.31814700854367       -5.75732175978826
C            6.57954495481502       -6.22784530723169       -6.74948150159087
C            7.08974194557457       -6.12577990985020       -8.02350103771733
C            7.97244436084036       -5.11064949845842       -8.33744261414371
C            8.33723539065087       -4.18999443539595       -7.37418669713075
C            7.82843739068756       -4.28615475891737       -6.09888003965878
C            6.43968748436563       -6.52172045840751       -3.57969193571954
N            7.14447983348462       -7.68223687844394       -3.76839123923706
C            7.03524991266905       -8.76579955621815       -2.79632127622054
C            8.17032092215665       -7.88447987204938       -4.79684011930620
Se           5.42196427340705       -6.21336660979164       -2.01579621406151
C            4.19681519130677       -2.19426412757661       -2.63218306662462
C            3.46921036086552       -1.21981537206976       -1.99638269421964
H            1.35608405982042        1.36451736165318       -0.03416459539109
H            1.44375887990117        0.57821373540695       -1.62243251991580
H            2.93059644154827        1.19508962275169       -0.83427431771507
H            2.65311820714826       -2.89867488895309        0.80550231805261
H            3.95321067338548       -4.64826704683013       -0.33331836404606
H            5.87494557008832       -7.00391198200428       -6.50507475852277
H            6.79703892875686       -6.83680925329564       -8.77862017780864
H            8.37163166725173       -5.03322841584691       -9.33546143805080
H            9.01970145572169       -3.39370399336347       -7.62245128899571
H            8.10391325785257       -3.56837507679783       -5.34590983477324
H            6.01647916955955       -8.82708199770094       -2.41764627020145
H            7.70951121741201       -8.58507269294067       -1.96096607804757
H            7.28652439956616       -9.72035246587310       -3.25618982859461
H            8.63355381769032       -6.93773278276591       -5.06471326526821
H            7.73013876942177       -8.33449374546625       -5.68400362518930
H            8.95280414376946       -8.54454337159675       -4.42708617890716
H            4.63274278020821       -2.00483460830115       -3.59735210133860
H            3.33893994937631       -0.26503963919417       -2.47223166460911
