58
 energy: -11.964083325805 gnorm: 0.000626697124 xtb: 6.5.0 (97a52f5)
C            1.23376270589449        0.23021603268339       -0.38888706535599
O            1.98772056113568       -0.96081656154603       -0.35720337368222
C            2.83892266932723       -1.14541520183999       -1.45318232936871
C            3.61142769489361       -2.31104676918156       -1.48642190102887
C            4.46982660511647       -2.56601502727305       -2.52593692178123
C            4.60585312682503       -1.66364784862276       -3.57941886378115
C            5.51242705084613       -1.96457247909927       -4.68776424594519
N            5.82983706930756       -3.19665051805718       -5.04993541159896
C            6.63538914077754       -3.09581300407428       -6.12922146678054
C            7.13389621095124       -4.26276609085099       -6.87575673158454
C            6.25571543412341       -5.28960207744980       -7.19964569778129
C            6.67681589965579       -6.38851395826041       -7.91479734179419
C            7.99436677605310       -6.48577515890866       -8.31635484080312
C            8.89089064347401       -5.49345166218071       -7.99380099827968
C            8.49226586875463       -4.37227460877871       -7.26423829667223
O            9.40184777641281       -3.39550392115908       -6.90673766883572
C            6.84267782839265       -1.74237263246334       -6.45470247591366
C            7.52217730675238       -1.20100489882094       -7.63455377014122
C            7.23746158447334       -1.71242777974561       -8.89846756598635
C            7.84380181341658       -1.20671307598261      -10.02500287695103
C            8.75504475769506       -0.17405958864284       -9.91345378745646
C            9.06546493286516        0.34429698737005       -8.67830766830476
C            8.47093372806553       -0.15379553321644       -7.51678830107898
O            8.81267623743071        0.34433428450239       -6.27596687078158
N            6.11937101033719       -1.01941379672820       -5.52623109792640
C            5.97251437672004        0.41567278409187       -5.48602002183262
C            5.38249798167336        1.09185355485306       -6.54402347744963
C            5.21613333301338        2.45778104433261       -6.49388681284602
C            5.63277038220892        3.18369614588122       -5.38603718105399
C            5.46086856103659        4.66154067313879       -5.32459261824757
C            6.23004904169762        2.50470997194580       -4.33346296410811
C            6.39926771792670        1.13914742210318       -4.38133535935501
C            3.83001604151961       -0.50497944150033       -3.55471013558548
C            2.96917483413588       -0.24750952094194       -2.51793890951990
H            0.60171076210108        0.26656720231897        0.49971109869412
H            0.59654784627508        0.24510692431517       -1.27419335818823
H            1.90047162588702        1.09408611088513       -0.38408586790202
H            3.51511147334414       -3.00834927555882       -0.67311718904405
H            5.05446851205396       -3.46926502319170       -2.53989371930399
H            5.22877226481722       -5.20686864704051       -6.88851417894539
H            5.97816912815510       -7.17035388804580       -8.16330272287816
H            8.32237386726095       -7.34486593139901       -8.87848068594307
H            9.91803789677908       -5.57794595457367       -8.29981138089209
H           10.29297475439080       -3.62812892899299       -7.23619446099752
H            6.52478908388304       -2.51439934608644       -8.98339402604492
H            7.60731143368173       -1.61454863650817      -10.99387467527885
H            9.22725182219299        0.22283429836052      -10.79732628526209
H            9.78188118574567        1.14178643739663       -8.59597146885144
H            9.50234777236632        1.03207571673354       -6.36820370537706
H            5.05786952993873        0.53058584803140       -7.40256422819210
H            4.75888864291775        2.97444934346305       -7.32012854080571
H            4.87966060149160        5.03024254798677       -6.17027670427224
H            6.42822996981462        5.16470336590272       -5.33868962400566
H            4.94142777993853        4.95439341363286       -4.41148098580398
H            6.56256442550859        3.06002317215760       -3.47333069064315
H            6.86411015555609        0.61382730737778       -3.56548562806383
H            3.90339743818464        0.18870114765335       -4.37218603401212
H            2.38875532480608        0.65687504959421       -2.52763988837309
