51
 energy: -10.194333171233 gnorm: 0.000929954288 xtb: 6.5.0 (97a52f5)
C            0.86648710827387       -0.45232283122497        0.65347323256753
O            1.87395686190160        0.29413568541250        0.01076776154865
C            2.68946586246080        1.04364259763120        0.86893849166535
C            3.70372084066278        1.81169020061589        0.28974167837953
C            4.53877372558631        2.58314057873568        1.05800593092167
C            4.39430496038137        2.62791407060852        2.44366667425154
C            5.28444184553581        3.43710439875365        3.28932139194967
N            5.69942768831727        3.04438025359712        4.51207603545422
C            6.53610772289329        3.97859440147292        4.94952772437727
C            7.21435257073926        3.96389763977124        6.24947452054320
C            7.22908488618662        5.12867268422849        7.01097687516032
C            7.76911896393177        5.14943313405345        8.27708981678012
C            8.30631197976634        3.99700214365467        8.81485107059093
C            8.32066273563482        2.83579822358153        8.07826126731162
C            7.80693353548573        2.78890962543658        6.78017831832444
O            7.93986460606998        1.57321256144043        6.07908492127408
C            8.34554402477825        1.70772967989621        4.73084692605217
N            6.66016218669668        5.00537687861511        4.03139253056157
C            5.86790374852217        4.68379016943442        2.96703017212538
C            5.65243401475561        5.53352188238881        1.79423879281528
C            6.70164204714466        6.28898046411342        1.27255922706053
C            6.51285139964778        7.09049451242840        0.17538845968245
C            5.26501417382528        7.18279148603478       -0.44941819419072
O            5.16236942001656        8.01596869986851       -1.56948415426610
C            3.88711950084240        8.04705360322737       -2.16895498894643
C            4.20997588344306        6.43776080673825        0.08754742300485
C            4.40092047605795        5.63606971043910        1.18490576406540
C            3.39891380615293        1.84822335411127        3.02740007057059
C            2.56076465232426        1.07631979329918        2.26077788615063
H            0.28784602967725       -0.98105945560918       -0.10524658426347
H            0.20113962463923        0.21543737204928        1.20248414560747
H            1.31713228946344       -1.18213088351645        1.32751914958905
H            3.81458792464806        1.78411070624985       -0.77979995674408
H            5.32229831075009        3.15736322310168        0.59508295817595
H            6.77937898431877        6.01769324876539        6.60391680702155
H            7.76101435811856        6.06070549728653        8.85251936244811
H            8.72029895378436        4.00905328871265        9.80978074868221
H            8.75558818385967        1.93913603855155        8.48305054225468
H            8.89715025277208        0.81322176673610        4.43818514125807
H            8.99050675605150        2.58057935826808        4.61838003329155
H            7.46823297654726        1.80847964427999        4.09221729829194
H            7.21499207977769        5.85368724352065        4.14108832957971
H            7.67060276875775        6.22396093133081        1.73601893616741
H            7.32731926448707        7.66460684416893       -0.22922368760641
H            3.92543483796716        8.71096296883514       -3.03365143019323
H            3.15215475456570        8.43185962287758       -1.46064320890397
H            3.60891702131151        7.04657480097590       -2.50347480126060
H            3.23554463321787        6.49214775438927       -0.36220553324485
H            3.57712248096943        5.07715265860862        1.59393738468280
H            3.29577993050851        1.86294998755916        4.09856813994580
H            1.79949635577348        0.48870097450584        2.74018059944109
