52
 energy: -11.065782599389 gnorm: 0.000710781504 xtb: 6.5.0 (97a52f5)
C            1.45219762814993       -0.48164455236943       -0.99301364983212
O            2.50585888263922       -0.22337416140582       -0.09497353713851
C            3.19489253751517       -1.35495552744804        0.34895104467266
C            4.24006955803803       -1.15570694043131        1.25644637133133
C            4.96109055665528       -2.21111356140141        1.75238049310879
C            4.66432158668012       -3.51840193182865        1.36864972280981
C            5.43293172004870       -4.66717777384415        1.89632531891908
N            5.99802363130485       -5.56623784884817        1.02701077758932
C            6.71832897265143       -6.47112487290483        1.64043762759024
C            7.43684278615308       -7.52889290842149        0.98254082211202
C            8.15982606495625       -8.40830859775624        1.79653212361184
N            8.75831548988288       -9.13009647743791        2.48216134230974
C            7.38264156013590       -7.61088547358124       -0.37499608870530
C            8.02677223438051       -8.56546420647953       -1.24783338905803
C            7.81722457826972       -8.47115433014562       -2.62758062393040
C            8.41408971736203       -9.34979837565000       -3.49843224253605
C            9.24643870850447      -10.36082095096011       -3.02996628594266
C            9.85886356938122      -11.25711642083200       -3.91692886275129
N           10.36715298175290      -11.99904516056771       -4.65188329485348
C            9.46002987684069      -10.46326831851188       -1.65965573795939
C            8.86394196478012       -9.58655030434139       -0.78836286887982
S            6.73141861450495       -6.26442336862006        3.37467913999651
C            5.68035502671990       -4.90020588029482        3.24670194146830
C            5.17322799145694       -4.18298351678147        4.40482020128361
C            5.85428555270880       -4.24686298324873        5.62373740016329
C            5.38615317634038       -3.59209667055253        6.73237623295718
C            4.20424284341797       -2.84394822678501        6.68756604614280
O            3.80115271442476       -2.20766400967797        7.86097264356320
C            2.59693754543996       -1.48349706385018        7.76357704763364
C            3.51167873051807       -2.79249896128675        5.47232631959988
C            3.98317711191261       -3.44880940175991        4.36517760469167
C            3.63886637494329       -3.72156556798358        0.44794718278671
C            2.91486838783852       -2.66658683241705       -0.04819372149763
H            0.98620715083742        0.46928983367057       -1.25575558676209
H            0.70841540041075       -1.12263572467115       -0.51697014358316
H            1.84331005087979       -0.94793455539405       -1.89866187843994
H            4.46394406316863       -0.14825756887565        1.55950069783412
H            5.76650096347448       -2.04130485754590        2.44612261502114
H            6.78414183584241       -6.86291514970502       -0.86371595640861
H            7.17650096914955       -7.69384985943089       -3.00748212990660
H            8.24480394177768       -9.26480731976025       -4.55850410394653
H           10.10359034901680      -11.24396789099485       -1.29062503672753
H            9.04766044354636       -9.69050452682758        0.26413962286171
H            6.76279072878278       -4.82098194881212        5.67883824132033
H            5.91921514405059       -3.64279170364978        7.66525560574794
H            2.38029903737237       -1.04654974201725        8.73948591120593
H            1.78199638238607       -2.15419588634046        7.48685378794585
H            2.70527439600694       -0.68198535833971        7.03118832640789
H            2.59620974288132       -2.23404736273842        5.40353296618654
H            3.41996824690885       -3.41773938761969        3.44967624983988
H            3.41824070703744       -4.72796178600801        0.13602157007497
H            2.12239177014475       -2.85508802651171       -0.74908785992915
