51
 energy: -10.482165328140 gnorm: 0.000640440445 xtb: 6.5.0 (97a52f5)
C            1.97504889148652        1.07851499628636       -1.10800137223721
O            2.86400863423503        0.27095845711421       -0.37178526235797
C            3.40000117282070       -0.81149660474646       -1.07642620495290
C            4.26073163216701       -1.66772666177088       -0.38287511706889
C            4.82713068476557       -2.75516402139480       -0.99697999295971
C            4.55266534077193       -3.04145689899629       -2.33356197045898
C            5.17024689505814       -4.20117111912082       -3.01316561360780
N            5.82971488941009       -4.02186646878075       -4.20413738525093
C            6.40192712901964       -5.11926577681969       -4.63012378350348
C            7.17142120859170       -5.22519172546132       -5.84156788109654
C            7.71527207085585       -6.47914786290391       -6.14389618755672
N            8.15760889573230       -7.52611036064197       -6.38363242852624
C            7.32757007144663       -4.11545114573166       -6.61453174066877
C            8.05518619838811       -3.97069969836667       -7.85312467398323
C            8.05908828434486       -2.72415752786763       -8.49471285732858
C            8.74079508171298       -2.53477506231452       -9.67124989985535
C            9.44126757006180       -3.58476551560222      -10.24594447029262
Cl          10.29483838236787       -3.34818994807313      -11.72482391554568
C            9.45075037142181       -4.82651774478752       -9.62886767977813
C            8.76924078357808       -5.01608257024668       -8.45359212019679
S            6.14387133665254       -6.47769646035598       -3.56126765459946
C            5.18619990424532       -5.49779431882244       -2.50783393921851
C            4.52945285434811       -6.02243765529734       -1.32107441003612
C            5.02097579901334       -7.17145689445727       -0.69582739152898
C            4.40837163667568       -7.69105348229336        0.41436061380380
C            3.26384359765731       -7.09603720071303        0.95620171797390
O            2.70615287229917       -7.68719991818564        2.09103097445715
C            1.56689568400912       -7.03472634212943        2.60177488508588
C            2.75950092072635       -5.95581490684445        0.32056676904974
C            3.37513643023543       -5.43809403906221       -0.78977554341555
C            3.70930888758864       -2.18258037881160       -3.03424342741373
C            3.13975136091448       -1.09454930159736       -2.42111786742618
H            1.60810827675141        1.87083565606017       -0.45397399428317
H            1.12861897808473        0.48157449192288       -1.45074878878021
H            2.49704175831049        1.52951450598474       -1.95315778222035
H            4.47022158405030       -1.45058710500362        0.64948356053426
H            5.49432021076701       -3.40008784445899       -0.45149954880242
H            6.84520491840925       -3.22492208059166       -6.25326611250637
H            7.51673473996762       -1.90606974579396       -8.05281857876863
H            8.74289540997414       -1.57637580968722      -10.16218214682175
H            9.99792214861508       -5.63268849782538      -10.08753934524563
H            8.78590638529890       -5.98357008505735       -7.98948425546037
H            5.89881338214677       -7.64488118599408       -1.09967008337480
H            4.79740541096749       -8.57184111271912        0.89354798882644
H            1.23307736905987       -7.57066402136585        3.49145924285022
H            0.76781969552805       -7.04820438679540        1.85909249465399
H            1.81909500629828       -6.01017840736362        2.87931846370935
H            1.87528083464992       -5.47947529972076        0.70242334489801
H            2.95692059015626       -4.57552839910484       -1.27731517199525
H            3.50770071171922       -2.38972926178661       -4.07108747642329
H            2.48901711664761       -0.45236725189422       -2.98569598030171
