57
 energy: -12.132274119738 gnorm: 0.000688809635 xtb: 6.5.0 (97a52f5)
C            1.95222984216662        0.09707427218811       -0.62027336233108
O            2.73660073600435        1.22812287394984       -0.31405724530365
C            3.45937971215901        1.13315458574226        0.87925184145252
C            4.25167958061057        2.22646955953996        1.24748690297414
C            4.98953761645551        2.21208740653138        2.40386579229799
C            4.97144017637840        1.10492591784838        3.24801874961438
C            5.75517242264298        1.08719784483729        4.49201146398647
N            6.48666110569612        2.17147555151410        4.75816631147644
C            7.18428230362068        2.14020943825106        5.88418784623846
C            8.03691548051903        3.30640615010893        6.24013346737618
C            7.14371688918698        1.05343186693442        6.71815149804975
C            6.35576358259865       -0.02859530660190        6.36935515429082
C            6.27707556266529       -1.22581002934113        7.22313895539852
C            5.82864746292556       -2.42684074491086        6.67543905407868
C            5.73603439739559       -3.56477186335773        7.43897853916283
C            6.08034854311909       -3.54268645762789        8.78649555206763
N            5.97708105596460       -4.72918997762538        9.58900091759237
C            6.95738435214487       -5.22381406761953       10.47622103404466
C            8.23298539504195       -4.75222722771632       10.78596042893389
C            8.99358475788617       -5.44810558163442       11.69318377033756
C            8.50982010463708       -6.61185619248004       12.29720754078322
C            7.25982562148345       -7.09647874082837       11.99659703915932
C            6.47546852319369       -6.39978038245245       11.07617499545877
C            5.15383059457124       -6.64017212618972       10.54774291074748
C            4.21019482810214       -7.63757918849073       10.79835611096032
C            3.00361433532414       -7.58306296529164       10.14340530204980
C            2.71849708310441       -6.54910692673601        9.24739169437931
C            3.63701358998874       -5.56069948634705        8.99176799728529
C            4.87137658004649       -5.60544136924960        9.63975017760501
C            6.51905742838492       -2.34498937686798        9.34247994664789
C            6.61653654242329       -1.20747333921862        8.57757539743934
N            5.65858306032450       -0.01401344943519        5.23735065839820
C            4.18621282124209        0.01284781553131        2.88635547371546
C            3.44612874416855        0.02226050584664        1.73060728473551
H            1.43035935701467        0.27879876068727       -1.56070750771437
H            1.21351667867816       -0.06917493810412        0.16502070868137
H            2.59067771774193       -0.77996792392002       -0.73471281594821
H            4.26776422043694        3.08433756264479        0.59894683065559
H            5.59324161920364        3.05979129511152        2.67573513732343
H            7.92371831235281        4.10079361587138        5.50269675233569
H            9.08937744652670        3.02342843761242        6.27226360216631
H            7.76104960783275        3.70872180674135        7.21521025581735
H            7.73714603050825        1.04238084540692        7.61341220448841
H            5.55772659503845       -2.44847608268740        5.63442963654178
H            5.40949319770380       -4.49126380648082        7.00042513122376
H            8.60641775205830       -3.86462451366852       10.30799984421559
H            9.98013481538601       -5.09329196475264       11.94211111697326
H            9.12858440307290       -7.13767478842634       13.00547494922965
H            6.88189337116941       -7.99405292220472       12.45307044352407
H            4.43461542896595       -8.42596228730556       11.49472695162560
H            2.26495891916218       -8.34654723470446       10.32391313032614
H            1.76175480557151       -6.52673628567360        8.75219491105770
H            3.41642493378255       -4.75450002292976        8.31568765021423
H            6.76185539589680       -2.31842817783748       10.39025835926939
H            6.93387096008809       -0.28677412790667        9.03377677497054
H            4.16898368321985       -0.84478592062576        3.53572580035632
H            2.85003391643801       -0.83588031563030        1.47961093151020
