32
 energy: -6.790185864600 gnorm: 0.000538254368 xtb: 6.5.0 (97a52f5)
C            1.56178188605723       -0.41825352059999        1.02311945969012
O            1.63627769429182       -0.25421851166939       -0.37429098818874
C            2.53853902475841       -1.08807808331911       -1.03822393591940
C            3.33939295535442       -2.02051345757358       -0.38844760453362
C            4.21612946431594       -2.82185717095376       -1.08379414188511
C            4.34652692716293       -2.72343248104829       -2.46239340241358
C            5.27909801037508       -3.63332454837268       -3.15427415035945
N            5.55176745347758       -4.77724540109735       -2.53793088622038
C            6.38386300217995       -5.62190984742218       -3.14724895004842
N            6.64868855813842       -6.81184425044050       -2.50038869991992
N            6.98309145140053       -5.42816889005520       -4.32230081799909
C            6.73317497089055       -4.28033099912855       -4.93233731835539
C            7.36710792312116       -4.03824411218168       -6.16254126329241
N            7.89623263836173       -3.84733456285203       -7.17909281974998
C            5.87726733873398       -3.32582542971378       -4.38361997510819
C            5.67464448947297       -2.11152195931653       -5.04516798210954
N            5.49673625988283       -1.10087604542786       -5.58935580497700
C            3.53890605256197       -1.79818135398557       -3.12307803638109
C            2.64271967066263       -0.98269513944840       -2.45343918839823
O            1.89282839631910       -0.10851947654002       -3.25558364813786
C            0.98941937223255        0.72432841865565       -2.58055746669796
H            2.53123642136712       -0.19568637010586        1.47196607059341
H            1.24016061485644       -1.43404688668492        1.25746714672616
H            0.82215828629988        0.28740326895299        1.40530007751920
H            3.27529890935175       -2.12670981318858        0.67908779272413
H            4.81862181655149       -3.54627558534977       -0.56269782214519
H            6.22254236199069       -7.05195897527962       -1.62851323721940
H            7.24150076311072       -7.51495594697745       -2.89243965850800
H            3.58744783732093       -1.70371073271775       -4.19164858470327
H            0.47585115741074        1.34868380693140       -3.31394692259204
H            1.54113458542512        1.35048887347332       -1.87620576354914
H            0.26730370656005        0.10489518343263       -2.04462147783811
