43
 energy: -8.194151592888 gnorm: 0.000613900797 xtb: 6.5.0 (97a52f5)
C            1.73558041547213        0.07444009320786       -0.36567781654680
O            2.12717536003956        0.28686512671700        0.97111541617064
C            2.98239262745539       -0.68899044871469        1.49728614696429
C            3.41867199906209       -0.52069247829638        2.81534405234439
C            4.25846903681395       -1.42989794065027        3.40615358788353
C            4.70334929444653       -2.55190004439956        2.70789294671131
C            5.59717321249496       -3.50024833970659        3.35108902276944
N            6.04681632456273       -3.35731386118864        4.59063164621337
C            6.85600704099648       -4.42690127562739        4.83842180617506
C            6.86330552339989       -5.30412400564009        3.70045455260302
N            6.08785218439340       -4.66593779255965        2.74945198768668
C            7.51845840565512       -6.52894660992229        3.72970483561013
C            7.78576334339772       -7.38552049032417        2.62707648002700
C            8.67383722411268       -8.37698863193246        2.90735808659151
Cl           9.13795668941662       -9.56120920508193        1.75735027972989
S            9.29199536916717       -8.30421915877638        4.55059329759810
C            8.07360703472946       -7.05538228487042        5.04766740954492
C            6.96956247234953       -7.75728766912566        5.83682048491309
C            8.67786286837243       -5.84575432413470        5.87747335512580
C            9.96027389454761       -5.32919581745058        5.22700392598593
S            9.04541102790104       -6.23427422386061        7.61120592739864
C            8.30309162719977       -4.75451326795932        8.18733823035150
Cl           8.42732085542561       -4.18017418142863        9.79211909973112
C            7.59584878221682       -4.09918446212944        7.21771983527693
C            7.64742106781704       -4.72544659622382        5.95551071648455
C            4.27135810529019       -2.72456557200957        1.39225430484211
C            3.43042612117359       -1.81563182933534        0.79940703660624
H            1.08304366534257        0.89465982490646       -0.66801247200407
H            1.18529919829412       -0.86404441481465       -0.44693584380601
H            2.61363074161184        0.06337755171362       -1.01309207501006
H            3.07905389765284        0.34437333211043        3.35676575568013
H            4.58742792881997       -1.28926577698441        4.42074418407998
H            5.83627339630260       -5.05373271151571        1.84161048603041
H            7.38164837763073       -7.22496497688238        1.64256635586911
H            6.52612880367869       -8.55868158502835        5.24590376992084
H            6.17948208953751       -7.05702898865975        6.10781563780970
H            7.36870535702502       -8.19344824214397        6.75223507490506
H           10.72785134682044       -6.10272204281220        5.22158715917446
H           10.34897839496965       -4.47078214456569        5.77479155229503
H            9.77776480603436       -5.02132560708458        4.19746839464291
H            6.99443410067574       -3.22937450882825        7.41852294210490
H            4.60741515840702       -3.58199194234208        0.83782995356661
H            3.11475482928983       -1.97378247564822       -0.21548753004948
