36
 energy: -7.626778513626 gnorm: 0.000212199145 xtb: 6.5.0 (97a52f5)
C            1.67688271723795       -0.29020037536405       -0.42472750994325
O            2.23324004699558        0.87640490247004        0.13507809640679
C            2.87314701662429        0.69433706699249        1.36209191141411
C            3.42049935721515        1.82370984513515        1.97883627788607
C            4.06036768210360        1.73093698343396        3.18677320591682
C            4.19375441604153        0.50909528397169        3.84751943919031
C            4.87644788355289        0.47711608260243        5.14150937647680
N            5.29082259342860        1.62574404896280        5.61038936790813
C            5.91409317371418        1.63175262470576        6.81735066088150
C            6.12126745023611        0.46076450176671        7.55070898525153
C            6.77119040329662        0.52471534450932        8.80756726103977
C            7.19805336212008        1.70096143849024        9.32502018074381
C            7.00791633945654        2.91448417453333        8.61677772605391
C            7.43809993263212        4.15262207151113        9.12924126523792
C            7.24191072377969        5.30476291697313        8.42321334116084
C            6.61054906451784        5.27009201450894        7.17988293026067
C            6.18193025131073        4.08335683442062        6.65891604603772
C            6.36686100126849        2.88026062646450        7.35888195329041
O            5.70820657283868       -0.75645799445860        7.08420997087749
C            5.07536951266328       -0.78000024713903        5.86811092988193
O            4.67812257104337       -1.83446576032758        5.38817450148169
C            3.64982351926583       -0.61716800677840        3.22774623327204
C            3.00661685186318       -0.53288474450772        2.02000872709933
H            1.19384423481156       -0.02238628970797       -1.36563752567394
H            0.92866785159333       -0.70566877939691        0.25205153472367
H            2.46495530309855       -1.01789213915840       -0.62412256348018
H            3.32402920446491        2.77183379263677        1.48006795107598
H            4.47329055234757        2.61045715756720        3.64870740544630
H            6.91538639903534       -0.39556015296156        9.34528220976064
H            7.68785542773642        1.72798194859911       10.28288232137316
H            7.92481691909259        4.18032435554966       10.08879630155114
H            7.57537722917374        6.24690273710775        8.82630619819036
H            6.46117333764113        6.18505064955518        6.63047926495455
H            5.69330199308048        4.05069871430835        5.70118704549674
H            3.73937889084357       -1.57024240425178        3.71524211576475
H            2.60056021387441       -1.42307922272421        1.57545686299184
