44
 energy: -9.033910844936 gnorm: 0.000298609069 xtb: 6.5.0 (97a52f5)
C            0.68776479960701        0.07385217769740       -0.18215628687093
O            2.09110518281040        0.20402725459433       -0.16383255822828
C            2.76521056288321       -0.57359230472162       -1.10834093976751
C            4.15855060960382       -0.45945764162830       -1.16631363311659
C            4.89478894559134       -1.18472234483979       -2.06674679319983
C            4.27616668092506       -2.07446028924775       -2.94696211841519
C            5.03648147195880       -2.83464338358888       -3.96180306205634
N            4.49243082288795       -2.92087534560187       -5.15700625826481
C            5.25074903604850       -3.52093440894150       -6.09818861990350
C            4.75306876127036       -3.64489818816241       -7.41098853280443
C            5.49919941076886       -4.21584064532093       -8.39987453608830
C            6.78129152640687       -4.68995527335655       -8.12443077222101
C            7.29287708012561       -4.58832831799921       -6.86407480974399
C            6.54927464624000       -4.00631661032845       -5.81780717451183
N            7.08081076836722       -3.95353572949222       -4.57886375062476
C            6.31375907584744       -3.41045785459615       -3.65746478798892
C            6.81990599519153       -3.45602658603009       -2.26765810410826
C            8.15263330580756       -3.14613702433735       -2.00123195995277
C            8.65163225640992       -3.22140209415306       -0.72670639457064
C            7.84662237040819       -3.62418960745568        0.34453749886522
O            8.43629885065498       -3.68025344957698        1.60972808326949
C            7.59169543720969       -4.14571054353046        2.63739948681013
C            6.51235376574781       -3.94717416229312        0.07208864152508
C            6.01511800214970       -3.86927550643240       -1.20394193556016
C            2.88645601875372       -2.17875517412875       -2.90222623968515
C            2.14622365795742       -1.45295356386612       -2.00376082884891
H            0.26802216946880        0.73208340927196        0.57976121377489
H            0.40610356915097       -0.95503355006482        0.04607272271207
H            0.29937611590754        0.37042327806032       -1.15757228270748
H            4.64130011335822        0.21973693689198       -0.48634757397702
H            5.96340409633464       -1.06656469485965       -2.10813627836046
H            3.76520082745084       -3.27267107363621       -7.61794345454275
H            5.10005548651230       -4.30001642178910       -9.39723195795001
H            7.36613619980654       -5.13877359019275       -8.91032314553864
H            8.27917243848830       -4.95681030333456       -6.64312923935577
H            8.78660771441869       -2.84641434410929       -2.81754356101927
H            9.67968193280569       -2.97741616138282       -0.52592279410252
H            8.16102495930075       -4.17530475597597        3.56744870607144
H            7.24343877431626       -5.15311173387287        2.40489088836673
H            6.74689439582145       -3.46672790961137        2.76115678996066
H            5.86647933489851       -4.26240115146984        0.87087730223138
H            4.99058344060893       -4.13366723459936       -1.40084791318149
H            2.39921805436089       -2.84259999797129       -3.59522951438047
H            1.07712133535785       -1.56031408401497       -1.99334352194435
