43
 energy: -8.248343515630 gnorm: 0.000670240312 xtb: 6.5.0 (97a52f5)
C            1.24374554293443       -0.83478155811806       -0.62772002719938
O            2.35093574888142       -0.11701404549104       -0.12818282100463
C            3.09975618443851       -0.82490636605368        0.79640544372531
C            2.90280396902163       -2.09947557995784        1.26572754368067
C            3.84945959140230       -2.51940770693901        2.22716375583463
C            4.78968357300549       -1.57914069525802        2.53611371556791
C            5.88108041393363       -1.76775034407722        3.50052715690359
N            6.59585782369563       -2.86943426764487        3.36072825072499
C            7.68602981258481       -2.96171950700231        4.14877204114596
C            8.51541798294269       -4.09664871168050        4.05061431944297
C            9.64881109147194       -4.21386294599974        4.80209501767642
C           10.00884586461345       -3.19972426819046        5.68838810830710
C            9.22750505743156       -2.08744283663368        5.81094650851947
C            8.04909559467121       -1.93364327093542        5.05271045911095
N            7.28223234954033       -0.84119294874297        5.23734338602853
C            6.17835529846730       -0.78272160054346        4.50913397070384
C            5.27207533611045        0.29463688246088        4.84076014463639
C            3.95493756872710        0.36500213225624        4.54362162641521
N            3.12211178858101        1.39022320993533        4.92836791012949
C            3.53652524333849        2.61730144387411        5.65367769271165
C            2.26803975245617        3.46721956978872        5.84205274155778
C            1.25380111386818        2.93717736223092        4.80768669663866
C            1.71697186891787        1.51105064895342        4.46158932966960
S            4.51129794755316       -0.14370090618476        1.56217559610366
H            0.70643895400075       -0.20267627359147       -1.33624436563642
H            0.57285045730822       -1.10015128175391        0.19099212384216
H            1.58642357143933       -1.73402050732168       -1.14213066519897
H            2.09455473601276       -2.73080326501753        0.93394198445906
H            3.82978115048023       -3.49222422291296        2.69313574743726
H            8.23558771701742       -4.87289892198082        3.36028377590845
H           10.26929773888198       -5.09001804599207        4.71031738559847
H           10.90428284099865       -3.29868060542867        6.27967962157595
H            9.49512879591078       -1.30591356053671        6.49993652301194
H            5.68248218872660        1.06843016989697        5.46284659078862
H            3.50178966433511       -0.41735388767976        3.96784748169152
H            4.28679331703016        3.13862947266423        5.05168544248453
H            4.00167901593624        2.34288623674846        6.60551116140809
H            2.46942882010986        4.53787446068341        5.71235028058206
H            1.87518616356491        3.34378409405144        6.85820479930768
H            1.26218722873646        3.56801787897613        3.91078392181343
H            0.22590276832592        2.95257168845973        5.19107104584122
H            1.67053256196339        1.30404209152476        3.38765658141335
H            1.11678579062617        0.75175078916726        4.97207199663948
