30
 energy: -6.231702633850 gnorm: 0.000811620889 xtb: 6.5.0 (97a52f5)
C            1.22711832233842       -0.11185374973874       -0.52585536581240
O            2.26267759122071       -0.04203278700665        0.42617204855034
C            2.96514804294378       -1.23207523468842        0.62157857358592
C            4.01842167322432       -1.21514241033803        1.54102588364701
C            4.75986769732770       -2.33939094756494        1.79209045510578
C            4.49377216420504       -3.54412736314206        1.14058260031001
C            5.25560725685743       -4.77552218637724        1.36286405506231
N            4.90197675777162       -5.81256064582240        0.65632636723966
C            5.59849416747639       -6.97630601522614        0.84069373376677
C            5.24877555973949       -8.10837564841069        0.09889701860650
C            5.92065764516364       -9.29302418522655        0.25396105126258
C            6.96745612583421       -9.38465668634846        1.15921546302629
C            7.33154994771142       -8.29161163393897        1.89856161185420
C            6.66070635818141       -7.07204432456023        1.75633253202077
O            7.05049977826632       -5.99403106375273        2.51030334466186
C            6.36232140340580       -4.82235407938625        2.32999899651510
O            6.65802835468129       -3.81951593055716        2.96458021026080
C            3.44254578899356       -3.55829470375258        0.22304695133453
C            2.69479921676520       -2.43773449778646       -0.03361693834927
H            0.76517645492167        0.87391687186495       -0.60082393213983
H            0.47539868366877       -0.83413903540245       -0.20264058696391
H            1.63707464273316       -0.38760087965762       -1.49909899984021
H            4.23297894333969       -0.29122191359064        2.04885714876717
H            5.56415751494303       -2.29824105199810        2.50315772322911
H            4.43609707491522       -8.02860089655547       -0.60202083983183
H            5.63634287928270      -10.15444742912038       -0.32761223043863
H            7.49371652936362      -10.31745820500202        1.27960773855787
H            8.14127558708508       -8.34834438001238        2.60448118701014
H            3.22682920085130       -4.47949760884652       -0.28972027875315
H            1.89353863678622       -2.48965137805443       -0.74776552224566
