24
 energy: -4.871222349213 gnorm: 0.000555133096 xtb: 6.5.0 (97a52f5)
C            1.14971621536331        0.01548770751957       -0.33931673550059
O            2.17791451929952       -0.14283768497900        0.61131387689712
C            2.89663988698329       -1.33624103858728        0.50722255526475
C            3.90181922301050       -1.56870734199886        1.45237362762459
C            4.65550507999984       -2.71374474912974        1.41973961244676
C            4.44028933742779       -3.68219463072517        0.44288220273743
C            5.24313105553582       -4.91372803174436        0.41345290362201
N            6.17114275988361       -5.04880485417477        1.36504113496102
C            6.87020308917162       -6.15911709324213        1.32026152356598
C            6.67285265477863       -7.11961469365352        0.36782573464117
C            5.69781950033776       -6.87970538356775       -0.55994762617814
N            4.96953506292013       -5.78738443265883       -0.55950702294344
C            3.44191049472644       -3.45612060753101       -0.50148015728385
C            2.68500704723675       -2.31181626645064       -0.47354296613969
H            0.64815736383509        0.96550626985045       -0.14865222544557
H            0.42499139982227       -0.79394317102380       -0.24011099450126
H            1.57255552366323        0.03189587785292       -1.34483957924535
H            4.07015070537487       -0.82301504450250        2.20897657575328
H            5.42563602292004       -2.88077549181298        2.15192290883518
H            7.62708573015345       -6.29612676068316        2.07868629683900
H            7.25959635028639       -8.02300107633711        0.34859400816259
H            5.50021727231931       -7.60406350742541       -1.33645685908989
H            3.27300004238034       -4.20114574613781       -1.25893471009452
H            1.92275366257012       -2.16476224885831       -1.21643408493025
