90
 energy: -19.685488555288 gnorm: 0.000854833655 xtb: 6.5.0 (97a52f5)
C            1.68478562695180       -0.61525415076013       -0.04659464657249
O            0.96055151757806        0.55220135631936       -0.36030367990532
C            1.72035253192329        1.72682595429448       -0.38386227784342
C            1.05407611720828        2.92262014314850       -0.67473992595333
C            1.72473182622979        4.11869939632203       -0.71589912853291
C            3.09267396207751        4.16694513943180       -0.46915020025626
C            3.83194990731452        5.42101353748647       -0.50482582141153
N            3.31236123270546        6.63653399367112       -0.69006925293120
N            4.28271819820481        7.50275096549314       -0.64334507977943
C            5.42594404109293        6.84370271218647       -0.43143517861729
C            6.72939786485344        7.48041263996911       -0.31755711389055
C            6.82727368376506        8.85780485259462       -0.42689302498639
C            8.04392935024172        9.51534986376853       -0.34720238439352
C            8.08121806571798       10.96629896265274       -0.45360795320053
N            6.99601764585039       11.73840286900283       -0.56639009469457
N            7.38141726126854       12.97886548731971       -0.64693084883827
C            8.71476908749346       13.00372268128417       -0.59015966090892
C            9.55503731091791       14.19096256301716       -0.66473421991184
C            9.00758916532629       15.46839368465197       -0.72119410199889
C            9.82237905822917       16.56923357535151       -0.80017421676751
C           11.21548434956230       16.44063758282076       -0.82911608587274
O           11.97095497526054       17.61495117525399       -0.91779205495892
C           13.36551636305553       17.41961418393742       -0.97585706720840
C           11.75571979341140       15.15111575820014       -0.77030882345883
C           10.93839714630278       14.05219392542095       -0.68941848476290
O            9.19726344392343       11.74112200078107       -0.45929902018131
C            9.21810333235910        8.75888757039119       -0.15351906339555
N           10.50986886684248        9.38581953707857       -0.04612077330447
C           11.17907367431728        9.67883397697489        1.15886384929373
C           10.83929105476740        9.38855356157722        2.47850509135081
C           11.66947237998759        9.82250844628053        3.48222883125838
C           12.83152439632405       10.54437037069371        3.19424730078426
C           13.17844969802730       10.84095153384788        1.89833827145435
C           12.34654500782008       10.40313854293798        0.86666518899013
C           12.40325553086821       10.56381304290969       -0.56603179829643
C           13.30706624090823       11.21683007742290       -1.40535955706120
C           13.06130291568813       11.22605946312464       -2.75691935020045
C           11.93081780845047       10.59798665734065       -3.28772675333232
C           11.03323530634470        9.95108642706043       -2.47492878802986
C           11.26957610678725        9.93036753854777       -1.10194886946944
C            9.11980583875854        7.38221469427758       -0.03541526927536
C            7.90224714842908        6.72602360486067       -0.10950666736402
N            7.86366055145588        5.29197921159219        0.01390040298723
C            7.41313289610987        4.56102470269415        1.13242164871294
C            6.97925215701830        4.99215608407906        2.38428513468687
C            6.54839301578523        4.05488989890747        3.29023619419163
C            6.54152454483687        2.69389801740112        2.97103457087118
C            6.96407003846672        2.25319176008445        1.74041226916336
C            7.40439487617623        3.19411755053113        0.80843224758939
C            7.86608440966414        3.07402658621152       -0.55313864192266
C            8.03683541122570        1.97524169152434       -1.39664440231106
C            8.47680823850352        2.19313721122262       -2.67981199749289
C            8.74716143093278        3.48552601722021       -3.13922252549393
C            8.58232479190586        4.57632281879196       -2.32191428104942
C            8.14063851305136        4.37139705255959       -1.01652837011943
O            5.17708845953611        5.51109323031715       -0.34227555715647
C            3.76434420812295        2.98474973363390       -0.17766928551879
C            3.09606326510655        1.78746392516215       -0.13515328510580
H            0.99704758483817       -1.46199802668502       -0.05329244657125
H            2.12468274594295       -0.52481524185585        0.94763586842692
H            2.46036117361949       -0.78453043497083       -0.79489140617413
H           -0.00343332789479        2.88186067841553       -0.86668031710559
H            1.20278664905615        5.03212087511944       -0.94130989833028
H            5.93255650820967        9.43328826753580       -0.57903888083271
H            7.93751426099648       15.57807071398315       -0.70251983767148
H            9.40190120691090       17.55818788654483       -0.84496416689507
H           13.84913059723666       18.39381616812047       -1.05972065450648
H           13.62139023635171       16.82191193330485       -1.85190838258603
H           13.71110837113403       16.93167601215219       -0.06343056102539
H           12.82151898982062       15.01594245028538       -0.79034665697871
H           11.35564485882360       13.06063994196275       -0.65402878405579
H            9.93938845999016        8.83886114223390        2.68888276667977
H           11.42065695604225        9.60609128882185        4.50803343739815
H           13.46225299121207       10.87565657505855        4.00259785359074
H           14.06751666416189       11.40147944792210        1.67012046135174
H           14.17135796121542       11.70365685061694       -0.98970240248336
H           13.74756150103268       11.72819595438700       -3.41864378486808
H           11.76046093110644       10.62577191464207       -4.35129967567041
H           10.15284674345313        9.47656650664734       -2.87002324643955
H           10.01311014768754        6.80751889458590        0.12069396332462
H            6.97624021974429        6.04257044981992        2.61438102552781
H            6.20648445119047        4.37245991759387        4.26143549059676
H            6.19584403553913        1.98088789375640        3.70119288579547
H            6.95613890430895        1.20826955347540        1.48584931359642
H            7.82113981244761        0.98438979792661       -1.03827605866627
H            8.61372137023074        1.35575732938837       -3.34393511690174
H            9.08864177138492        3.62701929571444       -4.15132116055281
H            8.78134132778241        5.57550354140816       -2.66595554082335
H            4.82059166476230        3.03086127467146        0.02442682556095
H            3.63888259055524        0.88905975646481        0.09458366959669
