90
 energy: -15.900878368163 gnorm: 0.001922727542 xtb: 6.5.0 (97a52f5)
C            3.04306072734442        0.82668229221792        0.79415028729727
O            2.51518921758461       -0.46575669838966        0.98758989147650
C            3.24520299876648       -1.49340009072029        0.38061730931539
C            2.77161005218726       -2.80231330873041        0.52618852062874
C            3.42788278068639       -3.86468444740012       -0.04324124525575
C            4.58894750368865       -3.66245306060540       -0.78264081794175
C            5.30215755223088       -4.76968896427582       -1.40707021808802
N            4.93355614258863       -6.05064751418317       -1.36578128160174
N            5.80391711387192       -6.74320059915452       -2.03913234618840
C            6.73960242934506       -5.91287630823858       -2.51239260209728
C            7.86551181451759       -6.37458950937378       -3.32005585381130
C            7.90005182939545       -7.70640295024571       -3.70173035414465
C            8.93162585161089       -8.23130039978176       -4.47662535765463
N            8.87381096397248       -9.63849407188128       -4.90933573070191
C            8.78642995061266       -9.99136680589741       -6.09581485263833
C            8.67931047332093       -8.80832369661755       -6.74353113307663
C            8.83132346915663       -8.95849247596072       -8.03017456761366
C            9.23016627541997      -10.04697917568671       -8.77228597327744
C           10.23258702167008      -10.88964376442804       -8.54637004149046
C           11.09377257829864      -10.86917889321098       -7.55943646542966
C           12.10462491930940      -11.70725782124384       -7.39556822310258
C           12.45053992587017      -12.69405077659271       -8.22303618828506
C           13.53230126220245      -13.32379953228710       -7.71115454002616
C           13.36640945009131      -10.52561995111169        0.22605176954956
C           12.17268709561081      -10.36309214919424        0.70018923098144
C            8.89025504326050      -10.48223807216873       -4.02440133507235
C           10.00467984410139       -7.36997482195168       -4.81973983348210
N           11.19359806587780       -7.87088620932955       -5.45275923881959
C           11.79266030348828       -7.34497323286961       -6.61799456353507
C           11.39362707069233       -6.37214781940956       -7.48860210024128
C           12.16808998627973       -6.08365637316444       -8.51152794449121
C           13.32787541354865       -6.71477974609678       -8.72763014322237
C           13.76890749725832       -7.66279554329295       -7.93002475100592
C           13.01277716566611       -8.00928729618152       -6.84619949760818
C           13.18150492927859       -8.97104639440176       -5.78060452587223
C           14.16755649721982       -9.86330361412329       -5.46748206514655
C           14.02755202895743      -10.60190570860139       -4.38874754081612
C           12.95783047339979      -10.50168175440534       -3.59178041271218
C           11.97743839683402       -9.66097349517081       -3.83515574287964
C           12.05242542915660       -8.87061252381131       -4.94504837231630
C            9.94401002587310       -6.06973936290210       -4.44668686380297
C            8.92553053460421       -5.53465001293350       -3.73146443875671
C            8.99728023019426       -4.13276142389318       -3.34049688943592
N            8.15138256336210       -3.35791392898499       -3.99203465503953
N            7.72313484181476       -2.17781517477140       -3.66069136484155
C            8.00389159759289       -1.44666686995979       -2.62898132050886
C            7.57426956148115       -0.23133570324244       -2.26361841464330
C            6.73287210732622        0.55585457433481       -2.89017123100210
C            6.32707567682160        1.76330509718527       -2.49776835749902
C            6.66489105352127        2.41415513044540       -1.33892124974471
O            6.29282905684673        3.59252219956865       -0.86198895990286
C            6.62492006248939        4.14940417434449        0.25178269193084
C           11.41924084658871       -4.16461266940129       -0.62533826759236
C           10.62450262767788       -4.57882278221086       -1.62190669209983
O            9.80321158281929       -3.79450754679217       -2.35422101155899
O            6.44785444575614       -4.64025869598559       -2.12767587542997
C            5.06648906032132       -2.36571943302196       -0.92982262104540
C            4.41311970210213       -1.30078796966027       -0.36412672338256
H            2.39887528062352        1.54573826904192        1.30199560575418
H            3.06659470027337        1.06423149822196       -0.27035505260504
H            4.04479893291900        0.88681501265609        1.22169497143383
H            1.87323719042678       -2.95676846211197        1.09696837132825
H            3.05225776242005       -4.86600660329143        0.07356994485943
H            7.09779883876800       -8.35355706781693       -3.39903075063173
H            7.15621333239242      -10.05045012812041       -6.56819434653021
H            5.32779808432867       -8.57661780468924      -11.10064636073377
H            7.62352303138958      -11.81877042430999      -12.71753262252795
H           10.97907388038054      -12.87659072788274      -10.23825392400352
H           13.81327210912280      -14.10171781085456       -8.36600317574441
H           14.24091753225037      -10.16980021164747        0.68784191223052
H           11.95506406036137       -9.85917099059389        1.59653264256929
H            8.98903335464195      -11.79016126000766       -5.18204130582979
H            7.27531965011844       -7.06774224319876       -6.46083546960795
H            9.39562317955012       -7.10566410162827      -16.65720683118162
H           17.56849189159604       -4.92766085798550      -14.75900820324184
H           17.67748951069533       -5.95986008880952      -10.08521520946268
H           18.95382508887792       -2.59066909706893       -3.29432449379260
H           16.68687012427376       -4.02912344427703        0.81174761543998
H            8.26696895639851       -6.65630996111505        1.65605723308346
H            6.98418745359918      -10.54544530099837        0.21482014877128
H           12.96146307142248       -6.17066991950911       -4.15015241589188
H            2.99362330164712        4.96502178190664       -2.12677139839164
H            3.62653378963640        6.12882567562573        3.17910476740571
H           14.81353234262948        2.17575557005096        4.27803693509784
H           14.50390694329859       -0.70941916574483       -0.75849759484402
H            7.26281877841921        3.73492146829784        0.97786287622423
H           12.04819315401292       -4.79570821516353       -0.06976304121043
H           10.63960503426967       -5.63112752377891       -1.86149888305272
H            5.96104728070448       -2.21119884303316       -1.50559518169760
H            4.80437926790140       -0.30976531428679       -0.50346570446175
