58
 energy: -11.439136435146 gnorm: 0.000811492877 xtb: 6.5.0 (97a52f5)
C            1.92116976845936        0.25568373728520       -1.18775391240074
O            2.46112075499250       -0.38199442022877       -0.05489229500807
C            3.18477623537043       -1.54039791730258       -0.31054837298590
C            3.70962209077548       -2.22296203997354        0.79479707722292
C            4.42926483497526       -3.37728004682740        0.63716522921694
C            4.66217888250545       -3.90656358026500       -0.62988880122994
C            5.41990900264950       -5.14513079759406       -0.74958461222622
O            5.91574890797295       -5.80936020105576        0.36141730013546
C            6.55750955069635       -6.94023176650480       -0.10329813331708
C            6.45526195607651       -6.95435843290845       -1.52956398457416
C            5.73847800218746       -5.82246931316112       -1.93046089357367
Br           5.34684930667546       -5.42424046978180       -3.72900712188551
N            7.10871956584185       -8.07821078842937       -1.94866777740791
C            7.60075165382725       -8.81143570722423       -0.87307245569384
C            8.28786877970290      -10.02199830074058       -1.04279822985574
C            8.56617626303955      -10.94153501452126        0.13815350534384
F            8.57088051005783      -12.21855066262538       -0.28152351965240
F            9.75549411007759      -10.61496818110061        0.66575772461951
F            7.59051705632951      -10.79997416935167        1.05213789574319
C            8.65637412813517      -10.37779263102411       -2.34821699806215
C            9.52630316966142      -11.40008337571086       -2.84276884764775
Br          10.67700080235556      -12.65995979278129       -2.04848333844119
C            9.52042137757712      -11.31204742276674       -4.23658880815409
O           10.03876105622776      -11.88122859613376       -5.38292754422340
C            9.52733589587121      -11.16188712985105       -6.45189383546031
C            9.85756842281055      -11.48963895401889       -7.83235757401757
C           10.68318202221243      -12.58110336449773       -8.09178861732091
C           11.01515095289994      -12.92023485556035       -9.37645231275829
C           10.53782630522599      -12.18071475971800      -10.46679928604427
O           10.92791590401195      -12.59557094494933      -11.73428311224066
C           10.43718858333166      -11.81928319930645      -12.80150006589518
C            9.70736285635224      -11.08356358133850      -10.20017328124052
C            9.37796716172173      -10.75045591684088       -8.91280180145357
C            8.68860491571578      -10.13128897498275       -6.01711306397556
Br           7.71626875303203       -8.83988794428769       -6.98345444672971
C            8.67976928436575      -10.22133677651082       -4.62173806622465
N            8.19775779477819       -9.68239533061193       -3.46302393753409
B            7.28368391496736       -8.46612313358438       -3.41050171004310
F            6.05441646692693       -8.79041021362207       -3.95118344774866
F            7.88113198723626       -7.41974036203298       -4.08807015359307
C            7.27584252751444       -8.06650951365851        0.30385125083266
Br           7.69923975512435       -8.22628559308131        2.13062959635170
C            4.14738081261016       -3.22946181614918       -1.73451923503335
C            3.42540237206944       -2.07477324962881       -1.58364886216029
H            1.36736792147551        1.13221879678912       -0.84618722913542
H            1.23623274637604       -0.42250783190657       -1.70006298992209
H            2.72837311658024        0.57672667911782       -1.84856890898340
H            3.52811268521173       -1.81644288413052        1.77459257529067
H            4.82617636346936       -3.89935653598383        1.49196022644607
H           11.05441505250119      -13.15393875610922       -7.25816054507696
H           11.65216029843064      -13.76445025074006       -9.57625072020940
H           10.82385574323049      -12.24373450869863      -13.72988442192639
H           10.79231337375564      -10.79161504690443      -12.70300994962561
H            9.34633212783354      -11.86159255941887      -12.81511031289137
H            9.32016900802163      -10.49485523961669      -11.01188632513455
H            8.73749650916564       -9.90555359667611       -8.72203807635695
H            4.32270096264139       -3.62978112169400       -2.71859444933384
H            3.03957963628970       -1.57699163766828       -2.45471999842098
