71
 energy: -14.152513432310 gnorm: 0.000540150984 xtb: 6.5.0 (97a52f5)
C            6.30240258987421       -0.78300541633511       -2.21320536651234
O            6.41979389187409       -1.22400019261356       -0.88009581401532
C            6.18705204780191       -0.26030980250686        0.10070793660996
C            5.86357272753164        1.06270636727471       -0.18932835633293
C            5.64744510206494        1.98602025779285        0.80706882997220
C            5.76357181500902        1.62638772789415        2.14433941713646
C            5.50000786971747        2.57346922279972        3.23163835174913
O            4.80489755696374        2.20711235628142        4.36840977476431
C            4.67252607857828        3.33271439621031        5.15591050589363
C            4.11131598828539        3.58614752323406        6.41208129355259
C            4.21009130359656        4.85328892069787        6.94363139390557
C            4.82803757193018        5.89968151190346        6.25742817977441
C            5.35667812400663        5.71771513713407        4.98126054136358
C            6.02448063703683        6.69488599942601        4.12722582156036
C            5.97675429223541        8.07515955092179        4.34913469260059
C            4.95590469656144        8.70763066649957        5.20397941908539
C            5.25008792086404        9.79568196685199        6.02402302919134
C            4.27869562312472       10.37726252938694        6.79989482421148
C            2.96556803936701        9.91865110714921        6.79398510344110
O            2.07402920646143       10.58454153252025        7.63980118029221
C            0.75746591707654       10.10144126814208        7.64609475684297
C            2.62907252032767        8.83108402913670        5.93794432679402
O            1.30519891444936        8.37841413910400        5.91996985932563
C            1.03500341926802        7.30905384989642        5.04320581980795
C            3.62729682722628        8.26802424593780        5.16272907567645
C            6.90770251433600        8.93864196258741        3.63992895454995
N            6.91995986815154       10.18237042083445        3.96296760672357
S            7.92383172261744       11.33918707714091        3.33323282202177
O            9.37591262494153       10.96345594806500        3.36575560397336
O            7.44459614455605       11.85776897743783        2.01347996169633
C            7.56796165986366       12.55815771152680        4.73010497935958
F            6.28633007741372       12.92289126783520        4.62605318038403
F            7.80138251051183       11.92544445306362        5.88551916061234
F            8.38833874901498       13.59954730014722        4.56402441738747
O            7.74114722919505        8.42425944270673        2.65658891057579
C            7.63683851854550        7.09324560389591        2.31190195514853
C            8.41079635064046        6.62573525988221        1.25215226022273
C            8.36597076307709        5.30594412943291        0.86713791230473
C            7.53675719099744        4.42241152319774        1.51898687149834
C            6.72455379467596        4.84472996782291        2.56819218581363
C            5.86252291097028        3.93708608711766        3.30266369175635
C            5.28819530245006        4.40367580597519        4.48812644553258
C            6.78894881077262        6.19869009472522        3.00239053161370
C            6.05692773338574        0.30089769173947        2.44833229850273
C            6.27866808218848       -0.65035365623776        1.46812859519459
O            6.58032856793996       -1.94310372655677        1.92228623036733
C            6.76549902808538       -2.91476119598009        0.92869017070077
H            7.03561862291059        0.00157693210185       -2.40716224162228
H            5.28624311712938       -0.42934428890577       -2.39557765088435
H            6.50703379878631       -1.63159323085220       -2.86807029043035
H            5.77124796380212        1.37607844857725       -1.21313290595263
H            5.35512594409932        2.99193902516173        0.55805721480950
H            3.63652993139511        2.78415521783482        6.94894618068656
H            3.80209738761240        5.04204655409144        7.92313728018587
H            4.91937757278145        6.85916884076493        6.73293857609244
H            6.24389099631789       10.21159608955414        6.00941219411617
H            4.51588395328612       11.21890772881944        7.42719608250005
H            0.17174536760303       10.69140036681183        8.35329880276601
H            0.76400615196928        9.05235768583922        7.94909752172006
H            0.33912787642536       10.19781510689302        6.64205230658296
H           -0.02392281437261        7.06098204465160        5.13076402011330
H            1.62937904302243        6.43934208575519        5.32733760060711
H            1.24586485614637        7.61281744255587        4.01653348250262
H            3.39072435030846        7.46119550816200        4.49599027276616
H            9.05486863599932        7.32495442393954        0.74782700847066
H            8.98638663075040        4.96228226452756        0.05535026902504
H            7.53989040352897        3.38540361618368        1.23844157480242
H            6.11011034904074       -0.00061863159844        3.47879180860975
H            6.96561132118200       -3.87385873695612        1.40983480503171
H            7.61250023853253       -2.62565255042667        0.30309996565517
H            5.85944746602230       -2.98229298459696        0.32304677956239
