79
 energy: -17.519545866383 gnorm: 0.000815601536 xtb: 6.5.0 (97a52f5)
C            1.74120933817552        0.83258119022882       -2.47659436595245
C            2.90390340250164        1.08618235960459       -2.25003109488946
C            4.26026354763000        1.37148786818219       -1.95631189095954
O            4.67708599000475        1.03342120535276       -0.62859612362456
C            6.01216075348821        1.32178138016872       -0.33236573959832
C            6.46611102733542        1.02143027062371        0.95548569830906
C            7.75937287775395        1.27784587850892        1.32965057438914
C            8.67384762796873        1.84418630387049        0.44472329764913
C           10.05772304222052        2.11699307018059        0.83336247307421
C           10.97438266438929        2.87805757909368        0.07947007502516
C           12.20364927800244        2.87488860341039        0.71281576815490
C           13.41555408740489        3.56503120837188        0.26538703600689
C           13.51404667026271        4.10227233143721       -1.01840539765275
C           14.65419287458433        4.76224713852005       -1.42167717161471
C           15.71914945082151        4.90374902456423       -0.55426990089471
C           15.64107388529318        4.37966002925964        0.72024410713704
C           14.50343420111484        3.71773277509493        1.12175753852292
C           12.06118864811692        2.07576291664491        1.89784809082147
N           10.74660091512899        1.67601941337972        1.91960049119072
B           10.24510412354167        0.78376280635247        3.06137275794996
F            9.79512435594616       -0.40452774458171        2.50005927797258
F            9.25832926346880        1.44888364339351        3.77681857832450
N           11.40233438423240        0.49304442082413        4.02367815599313
C           11.36123901215537       -0.18570101480964        5.20065271673449
C           10.21115684344157       -0.78413012304227        5.87954753523295
C           10.27116298911272       -1.10460215103155        7.23737757851031
C            9.19955535971306       -1.67261507710686        7.87880863336978
C            8.00991573880063       -1.95366188472866        7.19929993439436
O            6.97333771355059       -2.54340366610240        7.92805399482983
C            5.80211855362976       -2.84279815652118        7.17461556017151
C            4.73755571675905       -3.52631738578528        8.02406953725820
C            3.48108062233229       -3.85902463154648        7.24902667904544
S            2.24273760343230       -4.69066977716560        8.32361662664648
O            2.93077262093573       -5.94760556808511        8.72970109893684
O            2.01114130073365       -3.70307542864019        9.41484931299608
O            1.09365467319944       -4.87697767428228        7.39773530815274
C            7.94786464650405       -1.62576059379474        5.84122773080570
C            9.02269237357809       -1.05750512389874        5.20629142136486
C           12.67878398284206       -0.17040706010878        5.70167307927018
C           13.49234793626718        0.52702080670491        4.82725347649007
C           14.93295830052339        0.75009551461847        4.96664308212956
C           15.59917372724226        0.47832094406129        6.16188625194331
C           16.95782979516385        0.67742891579849        6.27323299329736
C           17.68201719001805        1.14866820401236        5.19619461441995
C           17.04137607791953        1.42261906360190        4.00466553290625
C           15.68388355663472        1.22672561699224        3.89467456182785
C           12.65752845001776        0.97807505164243        3.74852647391254
N           13.04507295927423        1.76106971097380        2.74131059924092
C            8.22228009265469        2.14063874189936       -0.84390654755351
C            6.92782391947381        1.88829982210310       -1.22508041796848
H            0.71703148060942        0.61074424769568       -2.67313621992014
H            4.44719578057315        2.44310932510354       -2.09637908924685
H            4.90830763941896        0.82649948434253       -2.65331268233753
H            5.77117767082962        0.58425009918662        1.65050203951228
H            8.08234146463578        1.04570936756228        2.32522609223594
H           10.74885156777611        3.40060313489582       -0.83277114367020
H           12.69108675331709        3.99096793002458       -1.70207529421392
H           14.71508831354325        5.16987071080668       -2.41763857380186
H           16.60956698800232        5.42128747128844       -0.87221356739522
H           16.47048393019496        4.48840684773959        1.39983276518448
H           14.43704694882743        3.31111733417712        2.11284389068526
H           11.16920343301992       -0.89163696292282        7.78942706864561
H            9.25427871880011       -1.91668354575127        8.92500868137145
H            6.09033731520908       -3.48804207815289        6.33713587044609
H            5.41450588951181       -1.90582730825621        6.75922253247476
H            4.49177157674014       -2.88540062967434        8.87972704390344
H            5.15876791864362       -4.43866445537575        8.46413880097923
H            3.70133023030542       -4.51908156439140        6.41016913127531
H            3.02506262698630       -2.95964855601458        6.83549927159822
H            7.04897908789416       -1.81819825743713        5.28448920369315
H            8.96042968832398       -0.81597577628219        4.16355429133793
H           13.00454249810889       -0.65049253469828        6.60710029019921
H           15.04091965005421        0.11574519767066        7.00684326447629
H           17.45748319320433        0.46467133665028        7.20431473098146
H           18.74494389641255        1.30296975094335        5.28581617831648
H           17.60350892565316        1.79004325365876        3.16169175531883
H           15.18178492351762        1.43553974585531        2.96933715348552
H            8.90836846149749        2.56468571852604       -1.55552133396300
H            6.61848926284977        2.12910996455539       -2.22571175522315
