74
 energy: -16.173112324234 gnorm: 0.000999255079 xtb: 6.5.0 (97a52f5)
C            0.76568204572080       -0.26198863767003        0.24668660256797
C            2.22643875669524       -0.09878418606894       -0.00635290018041
C            2.97011302632307       -1.15032723861764       -0.45027205410426
C            4.36355332817072       -1.02156651356926       -0.59123902217914
C            5.57072583860261       -0.82925702186682       -0.62141626929760
C            6.94561703373837       -0.52008101325122       -0.57271549832895
C            7.88549623714507       -1.28648614180787       -1.25391102713505
C            9.22613779678846       -0.96807019496662       -1.19765677712077
C            9.64930598315078        0.11841673880064       -0.45873856219349
C            8.72911244679224        0.88776320415423        0.22378351613718
C            7.38807993858272        0.57266117557671        0.16643661300088
C            2.38057838233451       -2.39702941903706       -0.72526023357038
C            1.84973578247532       -3.46932193026136       -0.97727635510973
C            1.21160563379919       -4.69233512124768       -1.27311646588727
C            1.70659183270762       -5.89507324814284       -0.77826754125026
C            1.08044293382333       -7.08854271278791       -1.07153836518969
C           -0.04970736560884       -7.10063940625915       -1.86373038685008
C           -0.55401409158706       -5.91635123172249       -2.36187005013477
C            0.07071735421972       -4.72202690861714       -2.06943729952532
C            2.84860888911175        1.22180895924462        0.25362826505627
C            2.77638252421887        1.82079478653560        1.51371827985617
C            3.37905975149735        3.03105992882167        1.75535557071692
C            4.07358316076695        3.71160503729445        0.74901018239624
C            4.70148181083683        5.01891955116971        1.02344201294373
C            4.02741772319764        5.92419767570425        2.00089908558037
C            5.87708892250931        5.41140752071335        0.45333344783386
C            6.60584483677642        4.60517850535546       -0.43946159916503
C            7.20536069521956        3.90432866834822       -1.24246334490879
C            7.84128004254021        3.06982431710353       -2.18502342848879
C            9.19227684304830        3.21920119552308       -2.48141227262453
C            9.80874801214073        2.38750903268708       -3.39279402695056
C            9.08599274152451        1.39492420949859       -4.02359866752535
C            7.74431931617521        1.23523094270161       -3.74220410652348
C            7.12689620460979        2.06563053710636       -2.83124997393307
C            6.43318083311752        6.66728864396478        0.75951640692789
C            6.89672753346722        7.76581456427141        1.03136357839453
C            7.41006029406869        9.04093700579293        1.34859692669214
C            6.57839156934231       10.15652824006578        1.36308140910603
C            7.07764830909906       11.40400129510990        1.67413086107569
C            8.41564302314873       11.55782332811526        1.97581176594503
C            9.25409214153764       10.46151257045875        1.96586541292011
C            8.75647098410185        9.21324490941854        1.65499810469968
C            4.11585986136161        3.12150912962271       -0.51785309038797
C            3.52909819708953        1.90479039046694       -0.75768012544440
H            0.26266764493303       -0.67551612655846       -0.62805726202294
H            0.29761446763812        0.69560952389872        0.47765169595581
H            0.58997268327312       -0.93414058629642        1.08726452056955
H            7.55062362361521       -2.13164587986190       -1.83089464137064
H            9.94415300382088       -1.56636167357851       -1.73439134898760
H           10.69659753924229        0.37016282371227       -0.42082241517200
H            9.05699796988185        1.74270985678974        0.79222607138856
H            6.66312516447583        1.18137735846177        0.67977971218572
H            2.58864523261238       -5.88122137117663       -0.16075572812548
H            1.47462364695721       -8.01303455959562       -0.68199389547685
H           -0.53807362212650       -8.03374594365445       -2.09321449198197
H           -1.43644945684745       -5.92472354808824       -2.98078480193437
H           -0.31929138151499       -3.79583248647723       -2.45620882989137
H            2.25516076370989        1.30746670528838        2.30344719872762
H            3.33418152643316        3.46038288579870        2.74136670237807
H            2.97250251110249        5.67183864818828        2.11240012736625
H            4.07823600057302        6.96318607348136        1.67331473553385
H            4.49919200328566        5.85707585012365        2.98175553900086
H            9.75331045157753        3.99156288871799       -1.98301816888507
H           10.85721308950406        2.51109389582484       -3.61047950985987
H            9.57011925014576        0.74179903286569       -4.73142451401354
H            7.18044648704852        0.45545544423597       -4.22805387603558
H            6.08499332705907        1.93306169795476       -2.59484853360305
H            5.53516978342886       10.03206878762461        1.12708045810180
H            6.42195810280146       12.25948399832718        1.68184719292806
H            8.80516804762524       12.53299364014530        2.21916632737060
H           10.29907740809745       10.58086834702580        2.20149532911475
H            9.40717955814825        8.35532674130885        1.64625107399394
H            4.60004162100475        3.64527960511114       -1.32258167848969
H            3.57786643765589        1.46312723249489       -1.73818558672438
