63
 energy: -13.007115797671 gnorm: 0.000294917384 xtb: 6.5.0 (97a52f5)
C            6.60071252061361        0.21745429494129        2.77965107888593
O            7.51042462905088       -0.65659853052194        2.15509863123168
C            7.02060892698651       -1.32444855312467        1.03354931533049
C            7.88399637987534       -2.22129318690952        0.39480099000072
C            7.48392872958346       -2.93030582618879       -0.70734405194752
C            6.19194264592770       -2.78540700885799       -1.21403970241547
C            5.73792088017490       -3.51883922825077       -2.40749559955607
O            5.25183309554918       -2.87495602888209       -3.52884127443380
C            4.96164302439693       -3.84162894104603       -4.46982330323939
C            4.52602333616639       -3.80884124257014       -5.79846320821092
C            4.39733319889601       -4.99494053308360       -6.48681562534287
C            4.65613908073283       -6.23014214273027       -5.89067383485307
C            5.03603090458599       -6.32609987966385       -4.55381065856953
C            5.32547615147441       -7.52723704565745       -3.77709681853554
C            5.01521931042233       -8.82004720968674       -4.21259220431260
C            4.03574820337032       -9.09222287632531       -5.28184170766428
C            4.23736513372328      -10.10014620935090       -6.23107806744620
C            3.30376379532407      -10.36024849502325       -7.19787568152618
C            2.10696524721302       -9.63929941369561       -7.26405203720761
O            1.21943624052342       -9.96580850977698       -8.28812504521638
C            0.02424303957178       -9.22232803772491       -8.30783066032596
C            1.88517538033601       -8.65395804186512       -6.29625086366770
C            2.82040315310718       -8.39711325917774       -5.32857014616038
C            5.59876112766344       -9.95895260231974       -3.51939143255248
N            5.45129044730745      -11.11552432877427       -4.06056104013929
S            6.06711892594526      -12.53997035752545       -3.48415365418809
O            7.54342254964198      -12.49616726201164       -3.22417600620645
O            5.25688143656523      -13.11033892669161       -2.36239146576006
C            5.74377089404687      -13.45606078417689       -5.10238342366837
F            4.41897224491483      -13.52893521241488       -5.26307988805380
F            6.31456344142488      -12.75058320570353       -6.08523448429156
F            6.29024890926142      -14.66957845797102       -4.98512250150582
O            6.27726390559056       -9.78443662285621       -2.32264113275033
C            6.37078376356637       -8.51963286239869       -1.78190585167908
C            6.90888123142070       -8.39141628522968       -0.50266190882201
C            7.01856100074937       -7.16163570713639        0.10233943680348
C            6.62002082322611       -6.02540569827415       -0.56354043117261
C            6.10735068983461       -6.09584735130528       -1.85566944303933
C            5.72045504042272       -4.91731593637724       -2.60546796321821
C            5.21800091222236       -5.09743488750882       -3.89612464028413
C            5.94778204256918       -7.36569061574336       -2.47952319584425
C            5.33807291329068       -1.87000206358144       -0.60067084325150
C            5.73693857780641       -1.15951866758129        0.50184136526734
H            7.09676829406168        0.65525160953274        3.64767327051319
H            5.72348415452209       -0.34001118250329        3.11272482708669
H            6.32158426822288        1.01396467862299        2.08770784468184
H            8.87766029674316       -2.33641961782774        0.79145508161854
H            8.17125674180038       -3.59214859819319       -1.20643971694872
H            4.32808681247705       -2.86028585523640       -6.26534084149241
H            4.09151977358649       -4.96867061437585       -7.51992011601536
H            4.58258686610827       -7.12358734617310       -6.48299824784343
H            5.12230471537950      -10.71154468091467       -6.16443712725860
H            3.46576942444275      -11.14128039609262       -7.92025325158415
H           -0.57488522782299       -9.57114459555769       -9.15082112141573
H            0.25121344717490       -8.16347618217348       -8.44407766205163
H           -0.52898137808428       -9.39060777571277       -7.38213135430183
H            0.96839174677247       -8.09326869602985       -6.30388496249245
H            2.62202534686151       -7.65328687444426       -4.57557106030455
H            7.22419738930980       -9.28566496639835        0.00626664557717
H            7.42059918803608       -7.08760073480427        1.09985905357894
H            6.69455821159175       -5.07096248631487       -0.07741526534702
H            4.35209879845839       -1.73135435380039       -1.01151214808007
H            5.05346724516620       -0.46624759092006        0.95722513165786
