68
 energy: -14.636318091600 gnorm: 0.000570208847 xtb: 6.5.0 (97a52f5)
C            1.02411871363153       -0.89995421312520        0.43653374954917
O            2.27299185465310       -0.47682557384701       -0.06139672532477
C            2.87587416164712        0.55659280017893        0.66672713201672
C            4.11386488075611        1.02764549529793        0.21748380290716
C            4.76868745852587        2.04030025765288        0.87242558471817
C            4.21156476537959        2.62340892060078        2.00272850023988
N            4.90200398071442        3.68834655956953        2.69224659916757
C            5.12678211720716        4.99868820728657        2.25332317969695
C            4.65065757127740        5.57414095726962        0.99947229127277
C            5.27338933101307        6.70936501631744        0.48202522991954
C            4.84768640144133        7.27470169920109       -0.69443838613116
C            3.76635344816166        6.73887225741300       -1.39636932368956
C            3.31028422411531        7.33541276015620       -2.67213664743046
C            3.15169452661347        6.54461258132438       -3.78690596261401
N            2.77204563670077        6.95766598892338       -5.00393103294236
C            2.53446585092942        8.23575372511833       -5.11976185611975
C            2.63358769530618        9.17829724866031       -4.07833082726370
C            2.34413867215203       10.54896316927779       -4.26561553893711
C            2.42945385312567       11.42134649911399       -3.22238970573334
C            2.79873242220982       10.96955904254173       -1.95082262488234
C            3.08741117681189        9.65204040785138       -1.74318934145075
C            3.02463251879204        8.72607292436467       -2.80447568163150
C            3.13926151559780        5.60575917408593       -0.87495085543719
C            3.57093557398513        5.03783767711848        0.29774423747864
N            5.85433580344121        5.67781624864586        3.12966194622370
C            6.11177412463334        4.84514745285261        4.15769282034269
C            6.94728579533881        5.22836320069719        5.30539283811724
C            6.98168348435001        6.55678964926795        5.72179302239819
C            7.77095327444912        6.94365884363290        6.78198120692829
C            8.54836599177609        6.01237504281528        7.44129079468872
C            8.53794791632465        4.69345333756506        7.03318924932767
C            7.74920014262387        4.30437683342706        5.97382139791130
C            5.51905723739388        3.58986140364290        3.92017805455660
C            5.50122596980209        2.40703025289858        4.78922936441245
C            5.24293910428520        2.52179787206090        6.15562896248328
C            5.22385681971102        1.40789590970003        6.96436563041274
C            5.45571105134362        0.15738707240643        6.42652804459493
C            5.70275119995091        0.02322256292092        5.07462521198711
C            5.72291330917741        1.13502446739098        4.26334250656741
C            2.98541898205351        2.16179157968885        2.46260705588469
C            2.32707692038671        1.14900468360871        1.80913730075647
H            0.64362312091532       -1.69540460209400       -0.20560051867269
H            0.31732664179704       -0.06910720201298        0.42483803207572
H            1.13809805062439       -1.28913787800673        1.44920207013601
H            4.54270073763397        0.57642436502573       -0.65948258428713
H            5.71941131111664        2.39907076610819        0.51868255045208
H            6.10391130278897        7.13217815739998        1.01977616232915
H            5.35853435058539        8.13216494973434       -1.09728649924768
H            3.36523901860897        5.49189527861441       -3.69202014408798
H            2.23161093850737        8.58569708093205       -6.09345055233803
H            2.05282021237136       10.89327754260932       -5.24277996482223
H            2.20671042321838       12.46493720955620       -3.37310433527282
H            2.85300233342716       11.66807116044672       -1.13206639156825
H            3.35216902381487        9.30732977220241       -0.75969533236820
H            2.30109523905919        5.18474015002212       -1.40284957014402
H            3.06663690500066        4.17492703389123        0.69151336602911
H            6.37785902045149        7.27852528396407        5.19993117512125
H            7.78288813368693        7.97450893116321        7.09602590390968
H            9.16615530198567        6.31552963341974        8.27066913515803
H            9.14968355191460        3.96737258446707        7.54317481920416
H            7.75339323352704        3.27989150086675        5.64596004970481
H            5.05571509734940        3.49718933140450        6.57039201073086
H            5.02776854526579        1.51241677716519        8.01887645886740
H            5.44094863608418       -0.71362297223798        7.06103789561527
H            5.87866240447554       -0.95305073302628        4.65355667407303
H            5.91062665330487        1.03363866024795        3.20897135786082
H            2.56137539990959        2.61244380072163        3.34292033323983
H            1.37983893478865        0.80776342184728        2.18471669326535
