66
 energy: -14.450948785667 gnorm: 0.000468222065 xtb: 6.5.0 (97a52f5)
C            5.97175084249122        2.65487816919632        2.15055659592645
O            5.19790819473294        2.27398300727504        1.03574985253662
C            4.67469338854425        3.33917689948160        0.29205989640162
C            3.92314756708849        3.02629011162356       -0.84522338348498
C            3.37524462655837        4.01121241950840       -1.62797294694282
C            3.55570428464134        5.34921458390673       -1.30413080320809
N            2.98346890115743        6.38462708807607       -2.13233468382072
C            1.66186461181328        6.86778300191771       -2.12888701566015
C            0.59121523254122        6.44702291521514       -1.23021782227190
C           -0.72567960949997        6.79563973765052       -1.52832562028695
C           -1.76206133977722        6.42001949241295       -0.70978556568727
C           -1.52339954846395        5.68677322635872        0.45321210106904
C           -2.64218248870956        5.27985527386709        1.33474246530444
C           -3.68775275221483        4.53819397247627        0.83554160558980
N           -4.74400904604182        4.09296311681780        1.53013575630945
C           -4.76424677212657        4.40918446465987        2.79643447800908
C           -3.78534737190297        5.17508627228017        3.45859988003658
C           -3.87516113388884        5.50418095865947        4.83009075257437
C           -2.91337048624665        6.26770682183508        5.42110530117703
C           -1.82611380910499        6.73853241872586        4.67672732426530
C           -1.71226234135963        6.43187938203456        3.35194578228529
C           -2.68455787193064        5.63579775995396        2.71372595754823
C           -0.20573338905434        5.33910593311188        0.75464926025040
C            0.82727930149646        5.71185983610285       -0.06875550366189
N            1.47285398092728        7.76488175919208       -3.08807118789760
C            2.65331495030172        7.89141176392888       -3.73121714498404
C            2.97485768224804        8.73483473122457       -4.85531896438488
C            2.01375374703271        9.58099532638742       -5.41223340235796
C            2.32262099958399       10.37805243765832       -6.48195918665580
C            3.60102604212908       10.34664919850212       -7.01911460241046
C            4.55967809841229        9.52080459715661       -6.48684580461455
C            4.28107655508133        8.68970881908124       -5.39300649276714
C            5.28401706606276        7.79072719721132       -4.81036757633852
C            6.58726565187123        7.70174689684294       -5.31844095058632
C            7.51340634279566        6.85225802490749       -4.76786692511453
C            7.17607087489392        6.05452164069211       -3.68523073028488
C            5.91309144584694        6.11487389156842       -3.16240768293929
C            4.94990871790907        6.97251337224372       -3.70336092163909
C            3.61428164023534        7.04599575067602       -3.17070529246519
C            4.30068253464444        5.67425974045342       -0.17736672076346
C            4.85063970890103        4.69063622869546        0.60740307286309
H            6.33950089880886        1.75441741692790        2.64436140803559
H            5.35857964273296        3.21774377391353        2.85554466228956
H            6.82503849289609        3.25168380855500        1.82555945491843
H            3.78351946076563        1.98924925203055       -1.09361862044312
H            2.79853262174951        3.76231358604214       -2.50155656087145
H           -0.91758348935970        7.36615856053681       -2.42004881661916
H           -2.77326020567676        6.69737803595102       -0.95262503433414
H           -3.66132642446448        4.26987811387919       -0.20858492107682
H           -5.60629642097382        4.05651873204090        3.36983607134965
H           -4.71530691784853        5.14674573167490        5.39984877392691
H           -2.99006367949792        6.51604581519213        6.46694028353082
H           -1.07740674536784        7.34895835227573        5.15436417002501
H           -0.88224853748901        6.80562028925874        2.77924086863144
H           -0.00994937321678        4.76100977768677        1.64132470862095
H            1.83356366887034        5.43962576890671        0.18607678591054
H            1.02590294830173        9.59397703941320       -4.98620406897229
H            1.57520627929068       11.02839231533886       -6.90610451472579
H            3.84116855446315       10.97543057608623       -7.86091528977937
H            5.54121585285623        9.51745205813068       -6.92385259041370
H            6.87516937977244        8.30680016678585       -6.15832513195080
H            8.50876976705223        6.80236023464423       -5.17828606724417
H            7.90741166115252        5.38813353833090       -3.25799960205657
H            5.65069650901638        5.49600359436760       -2.32529201180735
H            4.43991034076749        6.71277748905049        0.06776071951338
H            5.42274068577396        4.96615773347013        1.47431217264797
