30
 energy: -5.711272052115 gnorm: 0.000644450462 xtb: 6.5.0 (97a52f5)
C            1.17988228742148        0.36897974635854       -0.36217494395222
O            2.42285954145729       -0.11816422226131        0.09170824356794
C            3.05632715497843       -1.01532626492695       -0.78281788097545
C            4.31164455250290       -1.50474830282749       -0.41021270639080
C            4.99789822543715       -2.38562195072610       -1.21098559596511
C            4.45469809488291       -2.81083722408070       -2.41377245114578
N            5.18032158003099       -3.73581515712351       -3.26121998139275
C            5.95148279804672       -3.39495411684405       -4.36346397085328
C            6.15337976311572       -2.02527820249650       -4.88241462747328
C            6.47474463009313       -4.55160404903173       -4.88429924906214
C            6.03013373728551       -5.62127923267094       -4.09684392157610
C            5.22775037295935       -5.11368428218547       -3.10565512164389
C            4.55821388625656       -5.87732476160102       -2.03088063809363
C            3.20964163424727       -2.33409902479113       -2.79598603825800
C            2.52015822696447       -1.45171190950981       -1.99800296352639
H            0.78207265926643        1.06239555819760        0.38023787914874
H            0.47680707877227       -0.45627669409523       -0.48365210770986
H            1.30899544254615        0.90076492855216       -1.30598505054322
H            4.73200815356854       -1.17215453022533        0.52227240025142
H            5.96484173330521       -2.75614301659545       -0.91829725110901
H            5.72775303275270       -1.28576682884525       -4.20384813276278
H            5.67508457965847       -1.90457105418160       -5.85489907365687
H            7.21535361533412       -1.80505031625000       -4.99574618485428
H            7.11505658023029       -4.61685578299051       -5.74886313784447
H            6.26815579187262       -6.66261380152627       -4.24050529069575
H            4.25233896429425       -6.86329678506566       -2.38329477390463
H            3.66761137948855       -5.35367066481224       -1.68168132802106
H            5.22567054880660       -6.01247886096223       -1.17887632875330
H            2.79378255614423       -2.66768136100112       -3.73080713270860
H            1.55767139827949       -1.09429183547979       -2.31552264009506
