45
 energy: -9.423437157479 gnorm: 0.000881223630 xtb: 6.5.0 (97a52f5)
C            2.60170065510346        1.72681352241508       -2.13566074775126
O            3.82392546190946        2.02338044934775       -1.49800911384871
C            3.83204102354012        1.80068521720230       -0.11232681348738
C            5.02927858981323        2.02586252950098        0.57358170416313
C            5.12224857252831        1.82177384248393        1.92847143392154
C            4.02016201335480        1.38508634290153        2.65112694947252
N            4.12208079699520        1.14104053240178        4.07023560670598
C            4.02332024034891        2.14148946278105        5.04907564989419
C            3.84955320045532        3.52016069269825        4.91833761938604
C            3.77900721893432        4.28524895901969        6.05411401906769
C            3.87597937921710        3.69947787150728        7.32101999343619
C            4.04441605813534        2.34483295374034        7.46508319845835
C            4.12057395436295        1.54446458271191        6.31789275435235
C            4.28653203772450        0.12760654640206        6.10729560530660
C            4.42909539836931       -0.95665293402877        7.02046578106557
C            4.42064933509712       -0.73650968480907        8.49117638531890
C            4.57002938476960       -2.21393515063374        6.50385688735612
C            4.58626918205667       -2.47196611404872        5.10096032749805
C            4.74578194575921       -3.77732117607570        4.59705059330229
C            4.76983351474112       -4.00902970722326        3.25045683895724
C            4.63747148324012       -2.95202375117339        2.35001668735465
C            4.47897308817460       -1.67472780381392        2.80746843131619
C            4.44662033996198       -1.40290980033743        4.18513807572443
C            4.28719045499258       -0.08770288985966        4.72283586326831
C            2.82152895235305        1.16909663547483        1.98354151806244
C            2.72690912111981        1.36945084333233        0.62744847173205
H            2.71066254922704        1.90838033877891       -3.20573207040909
H            1.81175152541445        2.37208685600570       -1.74903695621858
H            2.34489295907695        0.67768579606341       -1.98246969296382
H            5.88314984146291        2.36034543612329        0.01170551869814
H            6.04936212261036        1.99033224246229        2.44784150790326
H            3.77643060510484        3.95712378407060        3.93842156450792
H            3.64717717873556        5.35166166580328        5.97121070339239
H            3.81643858946193        4.32399913615485        8.19719918063499
H            4.11545478625872        1.90195209584676        8.44148942961389
H            3.47400491236473       -0.30106226729444        8.81317794339949
H            5.22933897685715       -0.06809280233358        8.78875699827315
H            4.55295847867755       -1.67287338539349        9.03490677275934
H            4.67872955249296       -3.04634239523844        7.17524133785195
H            4.84902966258795       -4.59476516402141        5.28968319128837
H            4.89381362414963       -5.01326757731336        2.87936279936535
H            4.66070428548425       -3.14570133903718        1.29010141461378
H            4.37889584510688       -0.86344022227741        2.11152133763077
H            1.96958979797080        0.83276102665455        2.54838853230266
H            1.79004330389155        1.19020480302205        0.13253676736328
