43
 energy: -7.936308829977 gnorm: 0.000480496305 xtb: 6.5.0 (97a52f5)
C            2.06406180664594        2.90657781370200       -1.39316123326410
C            2.79041140000251        1.61806054897531       -1.17843342808266
O            2.21367603261457        0.57550339413175       -1.41198223361213
C            4.17260995748031        1.65496890985031       -0.72104156646410
C            4.90286474585165        0.48358135618243       -0.56014942701199
O            4.42781523584648       -0.72799522049543       -0.87609385892044
C            6.27994491835557        0.55655410231234        0.01166474480408
C            7.10218736739889        1.71682750018400       -0.57562859033740
O            7.55492808749443        1.38920573722354       -1.90051061418244
C            7.23629437393754        2.43102462685696       -2.75801591455541
C            7.53617101880793        2.51698189788391       -4.13169742967644
C            8.21184420517438        1.42154520253731       -4.81865254680591
C            8.55852185068492        0.18814965255599       -4.04894813351331
O            8.50363160205698        1.47244293447249       -5.99576090617248
C            7.15735861227492        3.70113430345227       -4.81679407633511
O            7.41533067845613        3.85638614381387       -6.15504922673066
C            6.51189889534140        4.75412177195845       -4.14373140436213
C            6.16530935699022        5.97105439558786       -4.91089276940001
C            6.21377671766690        4.65365719710950       -2.77234710892760
O            5.62012340629029        5.66408756288579       -2.05152181617898
C            6.56417087263288        3.46962727404637       -2.11376662483043
C            6.32991682122279        3.08461726372841       -0.67121150734852
C            6.91678113819895        4.12941580142251        0.27458030071504
C            4.81972357271939        2.93092767553965       -0.41224889769489
O            4.19439640103529        3.87652251975530        0.02112394160721
H            1.00894814282048        2.71433339005077       -1.58288549798175
H            2.47483261435074        3.44319078859667       -2.24760607478492
H            2.14539784765079        3.54888410318793       -0.51639716512693
H            3.51431031086812       -0.61734554793331       -1.19436013179976
H            6.21593860092331        0.63635978492776        1.10166737669091
H            6.78815983298265       -0.38761876207520       -0.20658512688270
H            8.01851439393340        1.86852397526528        0.01740790669447
H            9.24603380781485        0.42055312779187       -3.23583571068682
H            9.03136799825778       -0.54290443416511       -4.70343951096254
H            7.66435798694222       -0.26065710827050       -3.61682952472541
H            7.86872776870616        3.05062728654844       -6.45753458924298
H            6.47070374505956        5.86013449611520       -5.95252103218216
H            6.67600977093273        6.84721237932894       -4.51053709285294
H            5.08994557019719        6.15054613318610       -4.90027208737407
H            5.40439237866859        6.42911392654569       -2.61750887435196
H            7.97338955536158        4.29666374818863        0.06949907677585
H            6.80428849534632        3.81951676587996        1.31243064039840
H            6.38845210400973        5.07392558115430        0.14443774567440
