53
 energy: -9.685010031688 gnorm: 0.000681199935 xtb: 6.5.0 (97a52f5)
C            1.81472792601955        0.60429518173944       -0.34217472050693
O            2.11937522637391       -0.58892429098822        0.34291565515885
C            2.96299255502981       -1.46874318439006       -0.35248146702962
C            3.28614045706732       -2.67856087367641        0.26796938849304
C            4.10130239364622       -3.59690482299690       -0.34879409743021
C            4.62461894448673       -3.33861671685032       -1.60440510914675
N            5.48036373423399       -4.30746502729917       -2.25669764188205
N            5.64838769904445       -5.52925665805634       -1.76259272174755
C            6.46109209999138       -6.08383160679797       -2.63565414316198
C            6.95421140383788       -7.39594130751675       -2.53742155934159
N            7.35839467463855       -8.48147608449306       -2.44848749084119
C            6.75367799447637       -5.11859349372701       -3.65898226347025
N            7.60696441281157       -5.33101138244021       -4.78960889629797
C            7.40473933317069       -6.50062541746838       -5.65634969085346
C            8.72578952884245       -6.96996109680135       -6.26919923239818
C            9.52008718602858       -5.83131516193880       -6.95084938731729
N            9.12995704797184       -5.59885408512060       -8.38136142751176
C            9.70814262508678       -6.59465662604990       -9.32271669922072
C            9.63680983074827       -6.08573448407273      -10.76559664395949
C            8.19475653769541       -5.70422946795166      -11.14154109908436
C            7.62200824973252       -4.68632099092615      -10.14105113310476
C            7.71562323899372       -5.22272496505880       -8.71105099103759
C            9.55365414994651       -4.52315120826111       -6.11928024145916
C            8.22910514100239       -4.16830899822458       -5.43210073517321
N            6.12503182490488       -4.00355655752435       -3.39071802011589
C            4.31596610514812       -2.14225904372334       -2.22993066072514
C            3.49927167189249       -1.21998854220821       -1.61903015637520
H            1.14856462935676        1.20243447487469        0.28100463191385
H            1.30834085982044        0.37514673235472       -1.28088226895408
H            2.72815678310633        1.17107225937082       -0.52746752975704
H            2.87801538355702       -2.87610410793829        1.24327482468802
H            4.34444999776811       -4.52695708388698        0.13366816418104
H            6.67816555301811       -6.23262485689451       -6.42723801239061
H            6.93856113899922       -7.29500107983521       -5.06461733570001
H            8.53804683098733       -7.76704762530327       -6.99794986878527
H            9.33976997121826       -7.42436555568067       -5.48321172054909
H           10.56757689233097       -6.17177954508716       -7.01669933618755
H            9.15040405845462       -7.52986222119098       -9.22101117766409
H           10.74125735775239       -6.81143214118281       -9.03200210718105
H           10.03850587259165       -6.83442545734390      -11.46176130373026
H           10.28368840721746       -5.20643348691709      -10.86818888529935
H            7.56879139533037       -6.60471055629829      -11.14284496404231
H            8.14942674589455       -5.31162227579117      -12.16677800714520
H            6.58477679897677       -4.42729679680428      -10.39311867769099
H            8.18862108695568       -3.75027600807733      -10.21069447993591
H            7.09134602464716       -6.11327086249237       -8.60046412419566
H            7.35820516561875       -4.48574130304303       -7.98960901307325
H            9.85667261324630       -3.70361357155432       -6.78224470438066
H           10.33946872425073       -4.59446316383116       -5.35816149764800
H            7.51146179722363       -3.73263831363482       -6.13072057062180
H            8.38460870124850       -3.40976730288593       -4.65676862013125
H            4.72698679568744       -1.94929662006789       -3.20506339173545
H            3.27301842191782       -0.29910661803244       -2.12438883844309
