39
 energy: -7.483409389702 gnorm: 0.000634915901 xtb: 6.5.0 (97a52f5)
C            1.51437446041914       -0.97974027069907       -0.30423137183170
O            1.75685888030780        0.36286399791515       -0.65781417507461
C            2.66239415691067        0.55524486824673       -1.71276479993829
C            3.19504909880030       -0.49231458759759       -2.45575567444896
C            4.09664529700573       -0.26620723749280       -3.47545354115775
C            4.49416463532780        1.01805521012560       -3.78081716689197
N            5.43972090967781        1.27069444493941       -4.84456681664295
N            5.82112202068417        0.31779173134264       -5.68674688823353
C            6.65834570550570        0.95126026894494       -6.47863139056255
C            7.34534382643421        0.35633358952071       -7.54906463294310
N            7.91103371925878       -0.13888523980788       -8.43449950756685
C            6.73916443373233        2.31890402599856       -6.05091996821124
N            7.52416668223077        3.34124283543524       -6.66793358957192
C            7.62764727844465        4.66270037219605       -6.01589616563232
C            7.14532408098562        5.69196031650529       -7.04704600241059
C            7.37085000356320        5.02808808081624       -8.42077502986016
C            7.49712920990255        3.51785353610213       -8.14216300729454
N            5.95959019314654        2.49225273918159       -5.01655361027175
C            3.97285068995026        2.07478366275892       -3.05743381820900
C            3.05853454973993        1.88418890412983       -2.03407512504011
O            2.60331839717010        3.04650967463510       -1.38862257938720
C            1.50618692004743        2.87351442223731       -0.53079041075856
H            2.45427660250408       -1.47004965061960       -0.04646935893178
H            1.01871782128510       -1.49577142791777       -1.12765461685892
H            0.85748182708944       -0.99334048034443        0.56652841670737
H            2.90087437634611       -1.50257501193766       -2.23826767400270
H            4.50238977169412       -1.08467587496659       -4.04361794212363
H            8.67091524248616        4.82845001971488       -5.73009746398054
H            7.02549711570446        4.66752081855896       -5.10174030507140
H            7.67860907166597        6.64623721260680       -6.95567942426976
H            6.08136620168456        5.90848537890419       -6.89606058190937
H            8.28817836303894        5.41048983405128       -8.88407693196001
H            6.55485179576449        5.24758770992517       -9.12019652610408
H            8.40685945236205        3.08579682377452       -8.57018160087253
H            6.64621697087347        2.95943872195644       -8.54390176272918
H            4.28180323582266        3.07472824140170       -3.29437426208092
H            1.15702488526941        3.85239660428748       -0.19881597357724
H            1.81893772109169        2.28218058794238        0.33146039946762
H            0.70606439607564        2.35756514722693       -1.06438911976505
