41
 energy: -7.803916194815 gnorm: 0.000251759675 xtb: 6.5.0 (97a52f5)
C            1.89529692921540        0.32578914255364       -0.59936192485957
O            2.25761475033572       -0.48345889429709        0.49537023530421
C            3.04881424903262       -1.59588828437875        0.17170895163069
C            3.42954525849156       -2.44162570381622        1.21690596433862
C            4.20194151893943       -3.55383083058464        0.98395100187133
C            4.62175222702103       -3.85968335053548       -0.29940885563783
N            5.42514393931392       -5.03773623339369       -0.54761784511985
N            5.72620089721302       -5.89175604583590        0.42367147456420
C            6.42905169531112       -6.80911742807108       -0.20429771446544
C            6.99001972955422       -7.93522025673692        0.42051852721745
N            7.44837192320380       -8.86648531827507        0.94229169545301
C            6.51765439450719       -6.44109101779655       -1.59054983724318
N            7.18913845222467       -7.17436484089681       -2.62007897576261
C            7.06020708717067       -8.63356448069750       -2.67868774817597
C            8.36786687249723       -9.32575252854189       -2.32378405143616
C            9.40523739714759       -9.28438515262190       -3.44337729039283
C            9.75992720860808       -7.87813005191989       -3.93335277686778
C            8.61695047439197       -7.19118917731627       -4.69541371266714
C            7.65730309647153       -6.42910093380787       -3.78883385585963
N            5.87966097836097       -5.31451445894273       -1.77604709250140
C            4.25346708768443       -3.02958685280234       -1.34478354826346
C            3.48004834236421       -1.91554585178260       -1.11864708991692
H            1.27924363381728        1.14786532985430       -0.23240863563948
H            1.31608248304151       -0.25719074402717       -1.31682397117404
H            2.78973329727224        0.73633480805426       -1.06997244177065
H            3.10095918251208       -2.20112610081191        2.21242241224944
H            4.48938249973675       -4.20275146286295        1.79225751036588
H            6.71736189675509       -8.92555844204594       -3.67475793142746
H            6.26203547097573       -8.92272113799551       -1.98708522350302
H            8.17441160291538      -10.36868764418768       -2.03909470945413
H            8.77936332729549       -8.84830184022722       -1.42709260394477
H            9.03899873482552       -9.87192246822636       -4.29400844387273
H           10.31650980588834       -9.80056190917706       -3.11153583010434
H           10.64645745211228       -7.93825688831991       -4.58014552411567
H           10.06295518792721       -7.25370871365169       -3.08507021700961
H            8.06856774027345       -7.94387748101482       -5.27352772917870
H            9.02345047433407       -6.50065137941695       -5.44726383620931
H            6.77814911262924       -6.08544826232830       -4.34291940832422
H            8.14727003251882       -5.52808614043591       -3.40628147543575
H            4.58303370370780       -3.27551073667202       -2.33882392649085
H            3.20523985239939       -1.28716023600522       -1.94582354617051
