36
 energy: -7.041790565772 gnorm: 0.000923265862 xtb: 6.5.0 (97a52f5)
C            1.67057183473418        0.51402012047708       -0.22990903100406
O            2.04852602490028       -0.84161605566647       -0.19221059716413
C            2.94424109306271       -1.23624720409689       -1.19579578084231
C            3.33389916433267       -2.57802343047597       -1.21576659685681
C            4.20678073244867       -3.04891974212903       -2.16635652306706
C            4.71992001796922       -2.19637569445650       -3.12921120854442
N            5.63648249165787       -2.69049692442217       -4.13303862967291
N            5.93978347815691       -3.97914597721477       -4.22744551615383
C            6.77449560663978       -4.00760607456101       -5.24275829505349
C            7.38672304890022       -5.17110225993521       -5.73479545201044
N            7.89262526069191       -6.13044287576192       -6.15040719234215
C            6.93371001099867       -2.66849527846896       -5.73415758811048
N            7.74007546267424       -2.26634027980672       -6.84625662073987
C            7.99374447943125       -0.83539622458496       -7.02225856253445
C            6.91500349415682       -0.23248139688352       -7.91912591018741
O            6.82631822036657       -0.92740177456641       -9.15797666046133
C            6.56205662495931       -2.31589733638380       -8.99259652717336
C            7.62404491541303       -2.98507187390891       -8.12235582421567
N            6.20586057465336       -1.85783359316355       -5.01179037010738
C            4.34401532176083       -0.86356257585312       -3.12029547926768
C            3.47092552017570       -0.38587354237200       -2.17188658759242
H            0.96714386539111        0.69529232773075        0.58422040020605
H            1.18061496417362        0.73556332168627       -1.17939315970455
H            2.54853305560778        1.14640286402478       -0.08905571579179
H            2.93300364788812       -3.23731917010637       -0.46610719733333
H            4.50370833146617       -4.08311850747592       -2.17895765238803
H            8.98300707171006       -0.71082577076586       -7.47323567934698
H            8.02030509404406       -0.35641185170780       -6.03723887893605
H            7.11173758458321        0.82333254990010       -8.14731751159028
H            5.93135400700839       -0.28806513185523       -7.43811187061972
H            6.51226246658667       -2.76112602430012       -9.99516129918943
H            5.56751763464760       -2.41146591704566       -8.54110875240455
H            8.59755480429601       -2.96277718793401       -8.62105227054301
H            7.38512974295542       -4.03507468553749       -7.92826370647938
H            4.74943461965317       -0.20838029004554       -3.87155815821483
H            3.19444973190455        0.65250346766283       -2.18424359456147
