46
 energy: -8.980731095212 gnorm: 0.000851869609 xtb: 6.5.0 (97a52f5)
C            2.07014177964862        0.36833132954280        0.02501405100506
O            2.33616779804146       -0.92918236271355        0.50340910207927
C            3.10436263051134       -1.72927997734626       -0.35393203806122
C            3.40187591249626       -3.02668344667864        0.07176346723748
C            4.15051489830401       -3.87445430664771       -0.70746690170527
C            4.62770655879475       -3.45754633580923       -1.93832597080538
N            5.41927090709763       -4.35035145895481       -2.75733866028962
N            5.64536111725869       -5.60442740508565       -2.39955518886447
C            6.39477694089978       -6.05777391595335       -3.38235672503800
C            6.93080225593873       -7.42941711421845       -3.44202301889891
O            6.33156234700386       -8.34074816704065       -2.89209499890218
C            8.19682884298072       -7.70246332972103       -4.15594741360252
C            8.43779233246717       -8.98050848227743       -4.65362286672494
C            9.60532820462431       -9.26667079202729       -5.31889858828767
C           10.56241061358048       -8.27857053254931       -5.49452401254804
Cl          12.01624435130794       -8.62725046754530       -6.35321420293730
C           10.34508524671425       -7.00704720781120       -4.98590661983125
C            9.17825563688690       -6.72420231684920       -4.31939496804783
C            6.56407820606167       -4.99933615400463       -4.34608455699178
N            7.20618982218812       -5.10939411678338       -5.61653638887441
C            7.67049211071661       -3.88493382299710       -6.30728298617812
C            7.69868343574387       -4.18759817499623       -7.81817656067556
C            7.38116344077731       -5.69076667379487       -7.95340222503572
C            6.72825553524827       -6.08868251309886       -6.62333711301764
N            5.94817406288833       -3.93032571482459       -3.91467312930447
C            4.34036730122804       -2.17485289761421       -2.37367517684425
C            3.59153258643415       -1.32143897347341       -1.59901426479098
H            1.47120881438495        0.89489239507857        0.76939948762835
H            1.50674222471595        0.31141668875804       -0.90711565064706
H            3.00624805592045        0.90830818724693       -0.12219315230670
H            3.02932127138925       -3.34719167621407        1.02848883543096
H            4.37747440278446       -4.87165689933823       -0.37390429392296
H            7.69005546354883       -9.74089314917675       -4.50691497225753
H            9.79273767417973      -10.25191562499952       -5.71074243528894
H           11.10018033429020       -6.25208478398552       -5.12461772989882
H            9.00875267991023       -5.73937115128373       -3.92114953148267
H            8.66117066459270       -3.62682439103063       -5.92080136492791
H            6.99502592866128       -3.06081799154508       -6.05853245770078
H            8.66648982537421       -3.93273253714738       -8.26702954820600
H            6.94533519324319       -3.58841238957582       -8.34325041474840
H            8.30211466873419       -6.26480995520352       -8.10874757780964
H            6.72935808309728       -5.90093709293047       -8.81037362905901
H            6.99220824079791       -7.10330816106615       -6.31245739666788
H            5.63722149907611       -6.02864706922328       -6.67237309296491
H            4.71633455783684       -1.85900359891935       -3.33083502234922
H            3.38111554162900       -0.33034546816915       -1.95709209687099
