56
 energy: -12.098963173554 gnorm: 0.000863482855 xtb: 6.5.0 (97a52f5)
C            1.21092079298002       -0.57214685107941        0.12453128958792
O            2.61649390841492       -0.51282376827429        0.03782899036161
C            3.25341994788130       -0.02187676046712        1.17383345775672
C            4.65011800853214        0.08583163422214        1.13872502209550
C            5.35321441844626        0.56794328469638        2.20962027810762
C            4.70017360643184        0.97628877876347        3.37855709977997
C            5.44088556972200        1.48756444410870        4.54431892228193
C            6.57219990408501        2.28968993682829        4.40080726425117
C            6.89105367290525        2.93870389411012        3.10901470653637
C            8.19827329607581        2.94317119927156        2.61925216655794
C            8.50204029029939        3.55571558897406        1.42471372197471
C            7.51112695625898        4.18157876667177        0.69527894337568
C            6.21379749806584        4.19677153934076        1.16650158072504
C            5.90585350636710        3.58620707587937        2.36079186527275
C            7.47758207228063        2.55354995270613        5.53421121040658
C            8.07395948911535        3.80799745277099        5.69208564529463
C            8.91926046911976        4.06389405698302        6.74165426964445
C            9.22153270657533        3.07867347284424        7.68682505181910
C           10.11536697939331        3.40445055419321        8.78226412121052
C           10.53471753631465        2.60544968578377        9.79034057813088
C           10.16314452357280        1.26970180498395        9.95274401356764
N            9.84582203208375        0.15810209635028       10.07363616194669
C           11.40225991689938        3.14027468523982       10.74587540348889
N           12.12553957635530        3.59184110572177       11.53594753375126
C            8.63720604926265        1.82095982187141        7.51751944979386
C            7.79255364100496        1.56344552635663        6.46963428979311
C            4.92226648887933        1.13917871459492        5.88729689480177
C            4.77975533770326        2.10872937535597        6.88168293763496
C            4.29308501231086        1.77708521129949        8.12544109127989
C            3.93181336212619        0.47412035243849        8.40293122583397
C            4.05518875921737       -0.49743830381253        7.43013961755325
C            4.54208710570401       -0.17036920103934        6.18504420317392
C            3.30648118815249        0.85136329533800        3.42086499298069
C            2.60019447805255        0.37107531970296        2.34992035537702
H            0.82230561030165       -0.95283546908482       -0.82097293221809
H            0.80655505253558        0.42645261018199        0.29627527040910
H            0.91619841550405       -1.25022066093557        0.92667870992697
H            5.15968253152991       -0.22068143828624        0.24258723316055
H            6.42619515626358        0.63115088719066        2.16360880878949
H            8.96895812601252        2.45277752574203        3.18840783976402
H            9.51532314297527        3.54702745519338        1.05810439922745
H            7.75070222915356        4.65971723821977       -0.24031134194617
H            5.44067072902647        4.68731309425130        0.59828793855254
H            4.89617592846294        3.60292675277169        2.73273873450624
H            7.84933817306195        4.58217030750215        4.97905629232475
H            9.36041298989718        5.04010037650011        6.84686638992894
H           10.48934240164190        4.41411524472029        8.79025974186580
H            8.84971025040304        1.03834103358638        8.22023965978300
H            7.36223996135388        0.58403641470126        6.35452092344024
H            5.05790689207124        3.12483092501172        6.66191698515358
H            4.19468296480491        2.53582268046904        8.88430768164489
H            3.55244182091586        0.21563745105409        9.37788353177733
H            3.77058634869860       -1.51409552019146        7.64625213753381
H            4.64267129644674       -0.92689625848284        5.42614060418935
H            2.78867621886416        1.15290761624434        4.31484831940920
H            1.53047565949036        0.29447799091405        2.41582871664217
