33
 energy: -6.982470936567 gnorm: 0.000560990042 xtb: 6.5.0 (97a52f5)
C            1.68880190913257        0.40019288387882       -0.40692438297332
O            2.74492420855221        0.69671800052282        0.47722200242279
C            3.28672618865686       -0.40427038769633        1.13813377225760
C            4.33539165984531       -0.16995854097081        2.03512150605971
C            4.92198930106138       -1.19555267098664        2.72781357879491
C            4.49440888196480       -2.51823448694982        2.56373284379475
C            5.14220890325909       -3.56051718346101        3.32471137577629
C            4.89479005410203       -4.89954145141370        3.32921167261045
C            3.91371660540781       -5.50137619000738        2.53447190011674
N            3.09346404337147       -5.98005298753396        1.86570439782213
C            5.67088282157162       -5.75969210107070        4.19137148485616
N            5.50695857364694       -7.05114757810914        4.27052927071490
C            6.37698781577058       -7.63007342401574        5.17638427153583
C            6.43870151807636       -8.99600935688961        5.48778245523407
C            7.35281711895878       -9.43903142547880        6.40966943141819
C            8.22020190248926       -8.54822792802663        7.03952127264719
C            8.17471719091087       -7.20625326121682        6.74881503053375
C            7.25320224616257       -6.74671629852796        5.81957403025242
S            6.94633491250187       -5.13859019878206        5.24867973025802
C            3.44725704487888       -2.74984771219394        1.66509124017637
C            2.85865053825203       -1.72654882100895        0.97113288013381
H            1.34627382618162        1.33265956100629       -0.85781433614011
H            0.86198766220161       -0.05333954170631        0.14136494070275
H            2.04093385061305       -0.26641618874995       -1.19539525803487
H            4.67026721643785        0.84344081886527        2.16876956055780
H            5.72598207684431       -0.98700633770958        3.41267853415141
H            5.92544661335008       -3.22479596282400        3.98048840157017
H            5.76637885833572       -9.67662039558802        4.99678926231999
H            7.40207482341744      -10.48816689404858        6.65072085136163
H            8.93189556844219       -8.91627940974491        7.75999494061508
H            8.83803108242992       -6.50802536426669        7.22909523528580
H            3.09205463824487       -3.75137888692463        1.51476419377291
H            2.05678034492529       -1.94421027836449        0.28960390939792
