35
 energy: -6.922041056539 gnorm: 0.000626048318 xtb: 6.5.0 (97a52f5)
C            1.78566962738632       -0.40823249909971       -0.36528266128234
O            2.61498158561116        0.71579368162117       -0.55724407459937
C            3.14498174331555        1.26003739515185        0.61430638730284
C            3.98668094319861        2.37120391801472        0.49007604988051
C            4.54143004115873        2.96980701554363        1.59078932201775
C            4.27723340496451        2.49912873419217        2.88150236963099
C            4.89568533675336        3.16924301881879        4.01527399144984
C            4.44742176027898        3.27635522791042        5.29114571080920
C            3.14478739209907        2.72309615394063        5.74379028903780
C            5.24602426822411        3.99000997281701        6.25569452561124
N            4.88414470476581        4.17961175048484        7.49598223515834
C            5.82866965329629        4.90446524972503        8.20133288394408
C            5.72954257448910        5.27796997648936        9.55002710779445
C            6.74099315530827        6.00263340166675       10.12853693876509
C            7.86593762750492        6.37229300191476        9.39270481413043
C            7.98261575411158        6.01734433506307        8.07018795109070
C            6.96568539710317        5.28492739659365        7.47406934694861
S            6.81877045060945        4.69807417351225        5.84804267254836
C            3.45549591724341        1.37370381881977        3.00497444732399
C            2.89969677574024        0.77291639118559        1.90374410391632
H            1.43123176164395       -0.74992953725891       -1.33872437004745
H            0.92460490678775       -0.13652502413331        0.24767223701350
H            2.35166573067539       -1.21337689875332        0.10597650582141
H            4.18795344249986        2.74793129537792       -0.49715567810229
H            5.18285495958141        3.82603264972323        1.47077087995266
H            5.81476283610641        3.68285030178648        3.79293851438699
H            2.38591471826288        2.80407286530689        4.96501670200295
H            2.77831533476644        3.27008290636868        6.61283724187658
H            3.24356688089797        1.67718418083829        6.03513835182186
H            4.85817882808837        4.99079432966315       10.11091278679186
H            6.66594427100570        6.29042101848519       11.16424463085613
H            8.64939713402527        6.94151581652813        9.86505561834179
H            8.84526883608484        6.29687578400229        7.49058462872291
H            3.28855851378477        0.94740957610287        3.97727376656133
H            2.27245373262312       -0.08958137839630        2.03484377252138
