42
 energy: -8.654815789275 gnorm: 0.000467454791 xtb: 6.5.0 (97a52f5)
C            1.44646071707684        0.36955307205099       -0.11359561481327
O            2.73598449594770        0.86174519155022        0.17518503181085
C            3.23127785477780        0.50292453270494        1.42832035107090
C            4.50956848654316        0.95788745101926        1.77798000842155
C            5.07055730295808        0.64644331478183        2.98801349482482
C            4.38990614281212       -0.14922415839680        3.91876219008197
C            5.01164479365429       -0.43479763178387        5.19051918041300
C            4.66964343333745       -1.38221908927758        6.11530372521575
C            3.63520894940235       -2.41342380950507        5.86657358808104
C            2.48066476352410       -2.46729605042582        6.64579235892010
C            1.51722048915622       -3.42193089291908        6.40868061124553
C            1.69031391002877       -4.34424822459030        5.39580767437096
C            2.83280029840528       -4.31253667934163        4.62110986841668
C            3.79846300468683       -3.35918687760903        4.85421078144476
C            5.38060596353990       -1.42323035458011        7.37425320029715
N            5.16665310748686       -2.32347409925496        8.29393204883274
C            5.97829558390175       -2.13229781128681        9.39817899479023
C            5.98277229368453       -2.92916915966841       10.55268771090133
C            6.83990660627733       -2.62686710502467       11.58061515933003
C            7.70557460184350       -1.53766958939799       11.49095999523511
C            7.71673277448070       -0.74448945463046       10.36874247836854
C            6.85394344372725       -1.04005053395176        9.32276711371800
S            6.62999443220125       -0.24173352937953        7.79781775288628
C            3.10542477392695       -0.58941065184661        3.57428593782634
C            2.54143577271169       -0.27747494857009        2.36550018424927
H            1.16219709301069        0.70160155572617       -1.11307607284761
H            0.72674789636315        0.76356692215833        0.60550443838446
H            1.44915200099585       -0.72125509983187       -0.09247213824660
H            5.04370946784456        1.56374278835379        1.06764915125882
H            6.05477708229224        1.00798808709845        3.23220379797584
H            5.84950266567980        0.19088399320621        5.44196076396362
H            2.35264548529164       -1.74780472841567        7.43606158816016
H            0.62731002094167       -3.45035468355713        7.01595526613711
H            0.93511218977478       -5.09075101688874        5.21173359170804
H            2.96903612969859       -5.03429126375675        3.83248419764608
H            4.69114499472871       -3.32945769797950        4.25339216897545
H            5.31254006968665       -3.76797295637212       10.61367411145766
H            6.84439166246560       -3.23764475009007       12.46837857203909
H            8.37125541867818       -1.31657165631333       12.30895617215973
H            8.38019755194780        0.09905613009547       10.28747725846260
H            2.54246213827270       -1.16874919917173        4.28227562071399
H            1.55391413623470       -0.63494933492565        2.13737768611179
