35
 energy: -6.826963067215 gnorm: 0.000941698636 xtb: 6.5.0 (97a52f5)
C            1.07820604920832       -0.00897319558158       -0.02421928034067
O            2.39725221705149        0.31367902910310        0.34906479175553
C            3.10347698850588       -0.70991646531931        0.97671504709724
C            4.40448699263896       -0.42381737900312        1.40486874495257
C            5.16898443300488       -1.36885361469250        2.03613144184699
C            4.67502175635491       -2.65422120764369        2.27263432319247
C            5.50878155267160       -3.62865803602610        2.94768691245439
C            5.17272269556707       -4.89246113113793        3.22674913498029
C            6.08671839348598       -5.78724841749008        3.92590212796488
O            7.15734184594139       -5.36225062699557        4.33359838625196
C            5.67863653431196       -7.19488830530893        4.12218026118615
C            5.16787636082782       -7.95330713599045        3.06283518668846
O            5.10897839355440       -7.50692695295004        1.77372955500640
C            4.71843324095445       -9.25995249492811        3.33515230878229
C            4.82647250571562       -9.79357592700113        4.57980377165256
C            4.36368179693542      -11.17539801611401        4.85979955209279
O            5.35946258998653       -9.09947444769388        5.62821890603760
C            5.78096980791226       -7.79683800925341        5.43535850152635
O            6.21638656607845       -7.13491811081075        6.37236686631938
C            3.37725067515828       -2.94355396707941        1.84172821633705
C            2.60997813799794       -1.99846172160535        1.21067652658554
H            0.62729043751144        0.87615831772921       -0.47589305955772
H            0.50332126793207       -0.28949880082634        0.85971982613015
H            1.08861091025155       -0.81812779564891       -0.75594383408701
H            4.79002653469333        0.56460662064505        1.22594085402511
H            6.16663021794218       -1.12351238953819        2.35796075018605
H            6.48735353414020       -3.30504140234444        3.25764805523086
H            4.20542372196384       -5.27321193781739        2.95910214159921
H            5.59435551235288       -6.66637913826464        1.66854026916907
H            4.30923836037274       -9.83561072133124        2.52624104990920
H            4.00790902588292      -11.67399720900063        3.95826326087594
H            3.55180054406631      -11.16146762360500        5.58644612084729
H            5.17742314127443      -11.76686343034834        5.27850063171391
H            2.96980765545509       -3.92467279223756        2.00770926375846
H            1.61625960229697       -2.25368556388986        0.89046338782900
