37
 energy: -7.134187810428 gnorm: 0.000820828889 xtb: 6.5.0 (97a52f5)
C            2.19829492299432        0.81241035582922        0.82466378444865
O            1.97792995746712       -0.01666401916717       -0.29502081745254
C            2.64569983360626       -1.23963501609940       -0.27856310395811
C            3.49512055617140       -1.62883676702060        0.75528351828333
C            4.14728008773461       -2.83885425870107        0.73634833198900
C            3.98287432594971       -3.72638339335061       -0.32327145810084
C            4.68445861739504       -4.99343166863138       -0.31774897593651
C            4.60419932037518       -5.93222449326423       -1.26677679281204
C            5.34675772024570       -7.17816576463717       -1.18048882843082
O            6.09050969976139       -7.37319812169568       -0.23257466934935
C            5.20673774497640       -8.21564440625420       -2.22376491991379
C            5.86175640625997       -9.42209446961046       -2.01771195804194
C            5.79650471475017      -10.44536702951368       -2.93282936933766
C            5.06411693450354      -10.28256089792058       -4.09338542716774
C            4.40583169628131       -9.10334583623596       -4.33021335259360
C            4.45546225338577       -8.04462294620655       -3.41405149287042
O            3.78403290888453       -6.87308426062021       -3.68303502317226
C            3.13296115314486       -3.34720334551816       -1.36300571161209
C            2.45955386422351       -2.13752944960162       -1.37109090240201
O            1.63678806554041       -1.89855284036069       -2.48489122866700
C            0.85312910929004       -0.73552281618292       -2.42952553845704
H            3.25530194510157        1.07251852658762        0.89232013676729
H            1.86403831028308        0.30810929592381        1.73216826612350
H            1.61767230687968        1.72663385642944        0.69537198352788
H            3.64973453943918       -0.97047928702949        1.59021703136292
H            4.79808325396745       -3.11113762155224        1.54940337802678
H            5.32535408796639       -5.19676603769659        0.52214276854139
H            3.98015942419875       -5.77572318325302       -2.12231236059963
H            6.43289723279686       -9.54198073337519       -1.11281691182303
H            6.31494692071992      -11.37131849704252       -2.74686391794350
H            5.01238673097287      -11.08360033822593       -4.81234998284059
H            3.83827347129931       -8.98117822917319       -5.23511106628666
H            3.32658063668310       -6.93329927524014       -4.54282565448870
H            2.97908800498642       -4.00300739753159       -2.19802941268402
H            0.21205707127516       -0.69499551113483       -3.31110131138334
H            1.50717893524358        0.13770110835533       -2.41179047772889
H            0.23845723524740       -0.75656523128236       -1.52829853300996
