33
 energy: -7.087962261728 gnorm: 0.000574353599 xtb: 6.5.0 (97a52f5)
C            1.05220707587071       -0.22698924727820        0.13593018791023
C            2.52662557219307       -0.07311958297359        0.31621684050428
O            2.95434188176465        0.77464169422938        1.07137891145469
N            3.33909858039078       -0.94902073114491       -0.39716286373118
C            4.74328496510945       -1.01590186690308       -0.36482437260784
C            5.41010914634702       -1.95213921122713       -1.15340646510544
C            6.79677028368790       -2.06559545598774       -1.13394765714631
C            7.49816724758269       -3.02544322993688       -1.93162016451528
C            8.84475837496158       -3.12588402201651       -1.88443767597531
C            9.62408799810655       -2.27632730916707       -1.03616621639063
C           11.01471720006993       -2.36368334428079       -0.96301219138222
C           11.73147071114311       -1.52738296149461       -0.13204533697246
C           11.09078194112172       -0.58440723799280        0.64514547922906
C            9.70194702562613       -0.45507119321314        0.60985590588773
C            9.00041120664761        0.50949882658490        1.40134649533899
C            7.65382116808557        0.60934638663001        1.35426649503499
C            6.87651773127710       -0.24666602177974        0.51092536401476
C            5.48988749070759       -0.17362510956642        0.45265056576439
C            7.54210949769552       -1.20668729727040       -0.28932335418188
C            8.95995076664233       -1.31198992994435       -0.23941599044946
H            0.54763903025401        0.71780220868805        0.33237172224130
H            0.65678149769763       -0.97149462191926        0.82560815200732
H            0.80833564208247       -0.53489021806861       -0.88005779460056
H            2.87275962669159       -1.62970141082806       -0.98559032923563
H            4.83904124019512       -2.60373063210404       -1.78830765802079
H            6.92870613795141       -3.67377770767346       -2.57452620251292
H            9.35481787779741       -3.85438002209730       -2.49028718682913
H           11.52471365076182       -3.09632700293502       -1.56403875963562
H           12.80487071450583       -1.61256859047324       -0.08852483344880
H           11.65989351473875        0.06220687171359        1.29022144043977
H            9.57001175580794        1.16035426092708        2.04156432587138
H            7.14234826849076        1.33939818181232        1.95701972959337
H            4.97347517799263        0.54678552769140        1.05657343745005
