47
 energy: -8.871186962656 gnorm: 0.000771658011 xtb: 6.5.0 (97a52f5)
C            1.37942669944683        0.41711596451192       -0.03629813473127
O            2.24542155864133       -0.60348702177791        0.40093297264828
C            2.93766585156440       -1.26709821294513       -0.61299636282338
C            3.80277277567020       -2.30033157061710       -0.23237099198437
C            4.52143464114750       -3.00496226771843       -1.16054219170611
C            4.41576599488679       -2.71495523933016       -2.52873185302830
C            5.18447632885225       -3.46959409361692       -3.47553531804168
C            5.17850363495514       -3.30672063744855       -4.82207695856383
C            5.98484312151294       -4.10949905417882       -5.66961025266615
C            5.96865914304805       -3.92242583666226       -7.04553542272908
C            6.82717393772441       -4.65017001199544       -7.86057560607467
C            6.92784670964360       -4.43830143146742       -9.26446156690554
C            6.22495630874912       -3.52258565611496       -9.98410430110742
C            6.32972600405853       -3.31612395814629      -11.39986857563731
C            5.54401157928590       -2.32987111000657      -12.01478898500887
C            5.61609340912101       -2.10817195450672      -13.36381558550772
C            6.47362217172268       -2.85648650295784      -14.17914814294134
O            6.47776576730475       -2.56444146577959      -15.54388913517966
C            7.34193671461779       -3.35879261149648      -16.32189422816573
C            7.26170974516689       -3.83959051231787      -13.56790745897119
C            7.19223366538554       -4.06305714238571      -12.21743625961388
O            7.63351768737109       -5.60238978419232       -7.30309080703672
B            7.23089349507253       -6.14632822183517       -5.99843657947140
F            8.27942010214692       -6.81902440260937       -5.42736452748701
F            6.16614327871228       -6.99289317860896       -6.19790278280364
O            6.79064194808963       -5.05899569377403       -5.11452613115803
C            3.54856521824807       -1.67951308629271       -2.90974428950712
C            2.83038981279063       -0.97554650094737       -1.97862144857872
H            0.89137286156837        0.84885665924431        0.83880438138289
H            0.61887326141676       -0.00116787166168       -0.69739230068790
H            1.95135983542326        1.19453745903279       -0.54516949570986
H            3.88889578080323       -2.52728928549328        0.81559301532194
H            5.17976761800714       -3.79519740565640       -0.84277527422799
H            5.82828679004231       -4.23770946581404       -3.08393620921863
H            4.55502233038073       -2.55858024221403       -5.27365393601632
H            5.32291718999686       -3.17403769070529       -7.46246299443278
H            7.63104544062893       -5.07083056006693       -9.77213933992338
H            5.52731215950946       -2.89217980942099       -9.46455243500188
H            4.87564921600642       -1.74157160228054      -11.40978907859534
H            5.00954893695164       -1.35093021181304      -13.82835508498957
H            7.24709546838712       -3.04734214860146      -17.36324348004219
H            7.05631530154030       -4.40834829947014      -16.23684145299649
H            8.37306317184100       -3.20898966740398      -15.99840886208144
H            7.93367991320811       -4.42892029910930      -14.16471788807109
H            7.81196989658489       -4.82494270516808      -11.78064659798523
H            3.44509696773794       -1.43081964520417       -3.95055058440303
H            2.17714055502546       -0.18679601298320       -2.30430145752948
