69
 energy: -13.834454957326 gnorm: 0.000714703582 xtb: 6.5.0 (97a52f5)
C            2.27666444593852       -1.70197591232106       -1.20872320400508
O            2.84620786097086       -0.58420711482416       -0.56471701189437
C            3.18294813881185       -0.77932210671061        0.76813107472046
C            2.99327148677031       -1.96695684069590        1.46707379115716
C            3.36216434390413       -2.09300010647404        2.78737795056981
C            3.94422094095946       -1.04521645088206        3.50557806939156
C            4.34130755012686       -1.21476845437417        4.86480708236243
C            4.24760330847964       -2.36254018674891        5.59511290429831
C            4.66292851306730       -2.56778704984391        6.94197056142642
O            4.58691586720247       -3.85359262971579        7.39138636585387
B            5.50136185698396       -4.23094310727889        8.47550458592566
F            6.78376550196319       -4.22873326273841        7.97578423100866
F            5.17711945196915       -5.47238562158291        8.96008580647925
O            5.42213802912997       -3.23197973768750        9.54335504761870
C            5.44315009770034       -1.93233103289488        9.15356837760732
C            5.77373672138559       -0.94987407193179       10.11779861091007
C            6.10032690651173       -1.28235223614881       11.39512359558130
C            6.44319728101016       -0.37221868146350       12.43959399352668
C            6.38711277034975        1.00859607546407       12.23206924444410
C            6.70275454994998        1.91605274535498       13.21791265742048
C            7.10027310106275        1.50473635478838       14.48596372900221
O            7.42962114717516        2.36185150024284       15.52739628635585
C            7.33197292528240        3.73582650761841       15.22573678421392
C            7.17783496587674        0.09839030572821       14.74621607255238
C            7.58096955787135       -0.35317940448498       16.01240473104822
C            7.66824122419572       -1.68772718164831       16.28806505341151
C            7.35532994139283       -2.62150357784669       15.30468028501374
C            6.95845420014656       -2.21223315842672       14.06087560117959
C            6.85346802693914       -0.84431217337408       13.73848983668480
C            5.12303797331276       -1.55284058302873        7.82456765725462
C            5.17493373405564       -0.11519245759177        7.45588186842600
C            4.02366391318065        0.67854492687257        7.49433266319668
C            4.08043193798330        2.01435237768650        7.17353663747463
C            5.28233562370902        2.59076159211806        6.81233773311520
C            6.43158761241313        1.82588366659077        6.77382709015901
C            6.38324571871300        0.48987340924273        7.09506274393530
C            4.14267464185304        0.21125053877339        2.82600554142659
C            4.69912080473024        1.34483813996763        3.45133799942971
C            4.88207350655021        2.51660295257567        2.76980023902438
C            4.51670155980745        2.61794433837508        1.43101227889976
C            3.96741025203308        1.54341967896589        0.79205430287794
C            3.76658281060958        0.32788761532632        1.46436152030561
H            2.06069765559368       -1.42994940410119       -2.24285747552105
H            1.34505215834935       -1.98069389637444       -0.71418393288587
H            2.98222657189580       -2.53407590474843       -1.20181077029011
H            2.55073017935791       -2.80901404251744        0.96705802902921
H            3.19182988155764       -3.03479823931518        3.27617728628057
H            4.78217983093159       -0.36791179130307        5.34407704303878
H            3.86155207821765       -3.24155684372118        5.11529958408340
H            5.77398028995163        0.07760235797279        9.81076155468946
H            6.09462627794937       -2.33269663439529       11.61776030306643
H            6.07751534198765        1.38306267157854       11.27327989907594
H            6.63601256073408        2.96617718416258       12.99969205909309
H            7.61594820969813        4.30391180667194       16.11272194389786
H            6.30372251529349        3.98502846437480       14.95979655965998
H            8.01358159631183        3.98701976327257       14.41182040101648
H            7.82199666666343        0.37909706138955       16.76355412816516
H            7.98014905008645       -2.01945326041857       17.26485498068012
H            7.42875342430518       -3.67345926309701       15.52710448517477
H            6.72958810114845       -2.95662620678466       13.32104740530158
H            3.08992767676553        0.22610808365076        7.78046181681352
H            3.18497772932954        2.61313837628585        7.20525213017291
H            5.32377165531195        3.63841885235388        6.56350582224765
H            7.36912801995548        2.27800820640544        6.49439993748404
H            7.27699152880665       -0.10942517750020        7.06952136855678
H            4.97740655965065        1.30592014871450        4.48737826820535
H            5.30989640450208        3.36928968593130        3.27097727661200
H            4.66468166291024        3.54508988496177        0.90179138619589
H            3.67698557071534        1.60937853149994       -0.24226187924248
