61
 energy: -11.641605027134 gnorm: 0.000554368702 xtb: 6.5.0 (97a52f5)
C            2.14510202855365        0.95490518056594       -1.23589215576531
O            2.82808333768811        0.39465807256689       -0.13846372694959
C            3.30930706490401       -0.89998032152032       -0.34018744117044
C            3.99638450778809       -1.50474305617710        0.71959221556634
C            4.50420443927293       -2.77079028517536        0.60669236181340
C            4.35373902198630       -3.50803670501424       -0.57724398351156
C            4.89575911431964       -4.83120003196785       -0.65276206297948
C            4.84597497158826       -5.65362795362399       -1.73652873749669
C            5.37044575232596       -6.97381114547262       -1.84619491723632
O            5.35729501533756       -7.51541642246693       -3.09998167886787
B            6.37130562968133       -8.53410352660922       -3.39143886639146
F            7.60208748949553       -7.92032473010509       -3.41068685709861
F            6.11277870021528       -9.12982403478958       -4.59855521813708
O            6.37294683656472       -9.53357117691676       -2.32232498381040
C            6.32661321199515       -9.05977365930653       -1.04996228316390
C            6.71384193825053       -9.92503349492708        0.00211781002769
C            7.13341470812264      -11.19537396975939       -0.22500887116381
C            7.54144209887494      -12.13315404825644        0.77844758944038
C            7.93350277739859      -13.42657008835556        0.40292144153573
C            8.32605610477153      -14.34439957951957        1.33979766848910
C            8.35171483164729      -14.02729891044804        2.70357543339886
O            8.76500763041083      -15.02461605632865        3.58831995838659
C            8.77420359866414      -14.65096527194786        4.94653251740173
C            7.96192114134941      -12.73588104117643        3.08081073644992
C            7.56763788287776      -11.81534603950813        2.14547776705876
C            5.87698615764927       -7.74527871462908       -0.76633745020352
C            5.83819394279280       -7.28623164206400        0.64409441477462
C            4.63457966041278       -7.25818541867809        1.35715935751326
C            4.60929555008253       -6.84412961506901        2.66828708930351
C            5.77222107478983       -6.45945316790397        3.29623964871475
C            6.99839788794406       -6.48517374131360        2.62524782511493
O            8.13456911556337       -6.08762762830261        3.34028942272875
C            9.34033767199567       -6.13231372565672        2.61422576168732
C            7.00898636226944       -6.90401834876905        1.29786725732553
C            3.66217566681321       -2.90312050063450       -1.63828752483948
C            3.15478381334934       -1.63529252213548       -1.52250489086434
H            1.81957846152884        1.95911552521898       -0.96044037019250
H            1.26828771311105        0.35101562840064       -1.47438725541872
H            2.81512241722032        1.02175618552519       -2.09439577929240
H            4.11580169800696       -0.94547445259799        1.63069368197039
H            5.02787540110471       -3.21573460856146        1.43530943477752
H            5.40021941394777       -5.17658838493267        0.22793466283695
H            4.40629227574963       -5.27489860074162       -2.64009381179125
H            6.66436306552590       -9.55231042296098        1.00670761503099
H            7.15862758475925      -11.52454497828322       -1.24896272196090
H            7.92151743391016      -13.69420314420258       -0.63962956183314
H            8.62419432350322      -15.33521234666417        1.04545928488508
H            9.11188463607524      -15.50554576661961        5.53469417429320
H            7.76625094655032      -14.37860379152705        5.26292441241096
H            9.46538267295901      -13.82042381224441        5.09764268657671
H            7.97051974493302      -12.46102239967584        4.11972867863305
H            7.27400909002927      -10.83245691453852        2.46713204106873
H            3.72879769278497       -7.56449147879795        0.86334412927337
H            3.67606274779000       -6.82211920290377        3.20675002142874
H            5.76146721337291       -6.13611820671995        4.32201987290507
H           10.14811779647261       -5.80487435723420        3.27038363845950
H            9.28216354361260       -5.45798740287713        1.75857019467269
H            9.53922456200067       -7.15459618548261        2.28915020861754
H            7.92987773624741       -6.93303373778080        0.74769462755432
H            3.52148645722986       -3.44282484183749       -2.55729851538076
H            2.62822863381752       -1.20140898056857       -2.35298597659757
