57
 energy: -11.048744661697 gnorm: 0.000473355586 xtb: 6.5.0 (97a52f5)
C            1.90788599187641        1.47937112108010       -0.37645858967853
O            2.56818086352253        0.30131000939575        0.02403314074016
C            3.10579751914522       -0.45712260420874       -1.01708653223558
C            3.76191646515660       -1.64651701644631       -0.67655535820308
C            4.31550702291299       -2.45258936174009       -1.63428785367940
C            4.24682925300630       -2.11323235011256       -2.99365411456910
C            4.83267851176735       -2.98613488718781       -3.96613389866107
C            4.87836087439117       -2.76589496376850       -5.30865511426750
C            5.44664851524915       -3.61083147145687       -6.30614326856919
O            5.56024114456479       -3.06270976430110       -7.55191455906549
B            6.63139806399058       -3.57880763655838       -8.41119112132718
F            7.83655998475916       -3.18113689902183       -7.88123787951238
F            6.48596868531968       -3.10013012798866       -9.68786741658656
O            6.58745958371766       -5.04143959476483       -8.41094834748320
C            6.38916271172823       -5.65523186439006       -7.21587984897181
C            6.67982671539327       -7.03843014114988       -7.12137486422002
C            7.16205330140802       -7.74500077284084       -8.17480247130576
C            7.46836969289603       -9.14474736207058       -8.17688445748895
C            7.95780602940896       -9.74679029246848       -9.34556190465728
C            8.25364831264910      -11.08293723967719       -9.38008116371745
C            8.07899320003145      -11.89639146438023       -8.25357103118422
O            8.40425456399646      -13.24778224045833       -8.37957353619901
C            8.19368921706448      -14.02185396380165       -7.22155001303373
C            7.59231852608475      -11.29684202698124       -7.08477863228302
C            7.29598638370390       -9.95946198186742       -7.04703005769445
C            5.87433475308372       -4.94986566383998       -6.09822333066177
C            5.68312944754168       -5.66708957054940       -4.81429399590719
C            4.40658974590986       -6.04538662476611       -4.38306046969889
C            4.23642687136754       -6.71471931903072       -3.19419266956556
C            5.33055700009536       -7.02919349981470       -2.41208837368701
C            6.60012452016331       -6.67574118893319       -2.82557687866815
C            6.77862356933030       -6.00642311290440       -4.01306988150903
C            3.58999677985627       -0.92087946335785       -3.33488219638286
C            3.03584306536181       -0.11609107370944       -2.37394675603100
H            1.52512742105805        1.97826277887291        0.51496209753565
H            1.07113837319987        1.23105471991829       -1.03088745666619
H            2.61006815066426        2.14440205248868       -0.88141913512151
H            3.81946486906255       -1.91272888026733        0.36414431599762
H            4.81235615526503       -3.36376001744773       -1.34857654958492
H            5.29221331668321       -3.87437444869433       -3.57911372554117
H            4.49545099288371       -1.83458910277096       -5.68189196144055
H            6.49975438203453       -7.53091960723777       -6.18548328975934
H            7.32287894404973       -7.20397154514707       -9.09078124365301
H            8.09917232621712       -9.14230296414953      -10.22503420629402
H            8.62810219682341      -11.53827250855683      -10.27990783229158
H            8.46825463753699      -15.05403052032108       -7.44387732430957
H            7.14027359718204      -13.98809437329222       -6.93951147375437
H            8.82364226783177      -13.65386107396110       -6.41044962444551
H            7.44953652374156      -11.89260263828859       -6.20186524140222
H            6.92600219589328       -9.52890286336756       -6.13415020287425
H            3.55707008988580       -5.80118689127396       -4.99705729217215
H            3.24697019330453       -6.99454446891077       -2.87161333664239
H            5.19406221264718       -7.55354747169491       -1.48056698323462
H            7.45304430161294       -6.92686085479062       -2.21653230767250
H            7.76626160219361       -5.72788677398918       -4.33795114430069
H            3.51410712206821       -0.63298492023238       -4.36767804523605
H            2.53999124169724        0.79062678719696       -2.66874459116110
