40
 energy: -7.979955810711 gnorm: 0.000666267657 xtb: 6.5.0 (97a52f5)
C            1.35936721937247       -0.43352691911453        0.21872667646511
O            2.47452824507879        0.22907933198220       -0.33215952754272
C            3.06745059654460        1.17181704781684        0.50376037692532
C            4.17647520237707        1.87071410452009        0.01021127870698
C            4.81620363851932        2.81585267851154        0.76714892990347
C            4.38362866248893        3.11746997468415        2.06381988288785
C            5.07693282991072        4.12476917789841        2.83309903009118
C            4.75109854369690        4.52200286789545        4.08085665038162
C            5.46272707461896        5.52895270086414        4.79236074594179
C            5.13359407837363        5.92430656872790        6.04113478379390
C            5.83228708438712        6.93891271788626        6.75662539247584
C            5.50047102275960        7.31568292535727        8.00756058977591
C            6.16134862085018        8.34402808476736        8.78493467545309
C            5.75425698215831        8.58120853820762       10.10158341344266
C            6.35778602585268        9.55211790216197       10.86408746177657
C            7.38272043268686       10.31698202776947       10.33945474031474
N            8.02212289517400       11.35150084188137       11.15394597279784
O            7.67358562021357       11.47662583042223       12.33892285011481
O            8.89078853435914       12.06836277601225       10.63170629028520
C            7.79699262971768       10.09758153269728        9.03890435584229
C            7.19887105232362        9.12769443281656        8.26993367893256
C            3.27573389681893        2.41856509081338        2.55886306407869
C            2.63501490575880        1.47253547612761        1.80187847403749
H            0.97397995805662       -1.13574112768837       -0.52179626733092
H            0.57944283989043        0.29004493058931        0.46044520666820
H            1.65887331737313       -0.98756318319595        1.10955843788914
H            4.51425405143814        1.64637273826268       -0.98597883470745
H            5.66540948029102        3.34111389996029        0.36517198489973
H            5.92078444195644        4.59705810654022        2.36175269759235
H            3.91225742124876        4.06982854338634        4.57667042740206
H            6.30118260700212        5.99602568027541        4.30619567391974
H            4.29593265425931        5.45366073142950        6.52564160407447
H            6.66015291605350        7.41212586519325        6.26185279994592
H            4.67512313276671        6.81206912011313        8.47941958555937
H            4.95644831600036        7.99050719436706       10.51768926454167
H            6.04318944253239        9.73121250284190       11.87787764248656
H            8.59329250750158       10.70258899438899        8.64049765273364
H            7.52991892401633        8.98003913980214        7.25798603153494
H            2.91709250581742        2.62641355692947        3.55065566909100
H            1.78632968975520        0.95695759610824        2.21247063682238
