63
 energy: -12.615956965490 gnorm: 0.000698364782 xtb: 6.5.0 (97a52f5)
C            1.50562216333313        0.71536381190058        1.37748084173441
O            2.00339052755687        0.10171429118662        0.21164718254154
C            2.59714326680245        0.96914094427521       -0.70432394201311
C            3.09696794307354        0.41506072330059       -1.88763090207746
C            3.69763888821678        1.19575524373970       -2.84029312950186
C            3.83474500625573        2.57493737535448       -2.66136406960219
C            4.48061102414859        3.36952172911431       -3.68842938137685
C            4.78564849405664        4.67390088768107       -3.58055313309610
C            5.43552379860785        5.48509976257700       -4.59168518946441
C            5.71239550472495        4.99621572671759       -5.85308338347688
C            6.33825960593558        5.81668983830476       -6.77005621051054
C            6.65646148250691        5.37026319489099       -8.11210843160028
C            6.33792173352607        4.17999522015867       -8.64818282162643
C            6.66379051184008        3.75910457678798       -9.99734464015055
C            6.16039769617176        2.54958809469280      -10.48378248728825
C            6.44392060680090        2.12593541176939      -11.75581035008065
C            7.24903570530920        2.88539494464155      -12.61158535068820
O            7.48514387438402        2.38053564530319      -13.88965102356915
C            8.31628543278815        3.17712107618613      -14.70105214636876
C            7.75750372554238        4.09405814292971      -12.12285469411203
C            7.47145804221465        4.51789816344130      -10.84995318744766
N            6.67489461795158        7.06470542969459       -6.44188862133113
C            6.36657685115014        7.45936067058283       -5.20622700829331
C            6.72464035535946        8.81460545899702       -4.84404307104653
C            7.34514511136060        9.64532412755590       -5.69232706014142
C            7.74579152241253       11.01313571225250       -5.41300443161455
C            8.37021471815546       11.76115730606647       -6.41093641774579
C            8.76563198718090       13.05824146036457       -6.17822737091237
C            8.55386817020202       13.64189401832994       -4.94643004439722
C            8.97600771124020       15.08851719819529       -4.70566643946359
F           10.14403261064176       15.30969949561498       -5.33702296722646
F            8.02004143368471       15.89643783523460       -5.19967167766543
F            9.11867782492086       15.29099897201056       -3.38263050693076
C            7.93195255144519       12.91759279221235       -3.95005699807649
C            7.53329825119691       11.61948823547243       -4.17482978453468
N            5.76209526563770        6.73582878775349       -4.26299481192112
C            3.33176662830420        3.13127166221362       -1.48141662084945
C            2.72888125241450        2.35102746178565       -0.52762933007900
H            1.06965135491067       -0.05756139984882        2.01219720798469
H            0.73131895745063        1.43712218455338        1.11393250848344
H            2.31973779552979        1.20022549356673        1.91782059413713
H            2.99816572152569       -0.64635688015459       -2.03102004041713
H            4.07617667460702        0.74554868336691       -3.74171484578987
H            4.74412439215952        2.85087035329733       -4.59129821975444
H            4.55945103567312        5.18464778348331       -2.66397245681086
H            5.44242872617799        3.99336673379065       -6.11795781467480
H            7.18069388583689        6.08674262032533       -8.71544324839280
H            5.78514666769837        3.47693076887615       -8.05348218201994
H            5.53641571166332        1.94851584865247       -9.84500729609992
H            6.04953037511678        1.19569775700555      -12.12460406860067
H            8.43472089412925        2.67843204479880      -15.66417763496090
H            9.29656318279230        3.28471972053452      -14.23447932002462
H            7.85385060225606        4.15225574118949      -14.86067920556954
H            8.38162200664193        4.70173945647285      -12.75203713596477
H            7.88562943941696        5.44719028679283      -10.50298123160518
H            6.47233746406663        9.13753212467552       -3.85232263417681
H            7.57160545608940        9.26627468817208       -6.67241440396089
H            8.54178030339956       11.31238707735717       -7.37425635078512
H            9.24742689256884       13.63391173539660       -6.95035486057826
H            7.76792221168731       13.38541625397776       -2.99409075912794
H            7.05445448080371       11.06998921316488       -3.38461826729625
H            3.40731078129652        4.19116510500068       -1.31902459543184
H            2.35148308946217        2.81100517627686        0.36711587341617
