64
 energy: -12.781271823936 gnorm: 0.000820850366 xtb: 6.5.0 (97a52f5)
C            1.25634577636809        0.51626440668334       -1.04591282608257
O            1.92644696984991       -0.12069631727323        0.01837713464301
C            2.63727167401834       -1.26797195226356       -0.33892519969234
C            3.30292856656198       -1.96136666612693        0.67826881577016
C            4.02454913156344       -3.09590309015385        0.41147535530940
C            4.12339073505436       -3.59915878207858       -0.88897773276651
C            4.89761314994603       -4.80100361691375       -1.13387387944988
C            5.15596659439213       -5.32475985887075       -2.34462922976334
C            5.92535627567564       -6.52648901488302       -2.60601232510159
C            6.39593881895798       -7.32369763507691       -1.58147295597714
C            7.12206582853359       -8.45717479201807       -1.88873952746246
C            7.63768809578096       -9.33554266860377       -0.85577772871734
C            7.40067965555510       -9.22514871199003        0.46275665537158
C            7.92198422426523      -10.11181329642769        1.48546571277984
C            7.54296776430382       -9.92437277229577        2.81789612559078
C            8.01569485416208      -10.74320629485296        3.81041127195877
C            8.89588843059755      -11.79373436066557        3.52749703262584
O            9.32946822625634      -12.57972928966409        4.59675065458977
C           10.24141513538415      -13.59809659810041        4.25167328421498
C            9.27690528759627      -11.98011173921227        2.19340144102665
C            8.80213550670041      -11.16062123610208        1.20033623019756
N            7.37278136556123       -8.77747175815204       -3.15971402338706
C            6.87814899765791       -7.95569255891435       -4.08778237341728
C            7.13627136276573       -8.29428745956804       -5.47162692848277
C            7.84648784093650       -9.37213966578993       -5.83728384508696
C            8.13932350919008       -9.77507836884235       -7.19769888820554
C            8.86927128148490      -10.94410411526075       -7.42874259066086
C            9.15967502586841      -11.35508727388808       -8.70385916675839
C            8.73760401265774      -10.62039808571925       -9.81786537049849
O            9.07368390791392      -11.11061895080329      -11.08109307385202
C            8.63846077112565      -10.31442090659048      -12.16021176343988
C            8.00848556755480       -9.44816656588223       -9.58516280659319
C            7.71785120322268       -9.03795645562330       -8.30849818333089
N            6.16266661779853       -6.84791463525938       -3.87893549614271
C            3.45681569768092       -2.90947154803146       -1.90684011328208
C            2.73272528619325       -1.77460958789144       -1.64049734508020
H            0.73242773345627        1.38938585421979       -0.65464112410553
H            0.52599317098338       -0.16444300998088       -1.48599685542124
H            1.97605705292540        0.84393789965194       -1.79762604638438
H            3.23453119140749       -1.57916170029065        1.68156827023099
H            4.52895514085708       -3.61136518300786        1.21093056281770
H            5.29958930322847       -5.28848178080683       -0.26510041324758
H            4.78450892920675       -4.82109599717815       -3.21673412045049
H            6.19786745817434       -7.06689308350716       -0.55997118779245
H            8.24756779886289      -10.14570568014052       -1.20752813365182
H            6.76652070382139       -8.42996791605145        0.80815403688022
H            6.86656601392506       -9.12277434352862        3.06064511665048
H            7.71716088093286      -10.59285479042073        4.83282250952934
H           10.52927479767318      -14.12967560254448        5.15966403147022
H           11.13419398352748      -13.16185479510468        3.80119774563848
H            9.77023981758132      -14.30239339819284        3.56445992758535
H            9.95134539007563      -12.77763390907641        1.93996436181936
H            9.11866025329560      -11.32748093694971        0.18648204057045
H            6.72582279945921       -7.63930162981276       -6.21578308487626
H            8.23212340348652       -9.99747238642040       -5.05273994497947
H            9.20388813434979      -11.52655208668118       -6.58746395272360
H            9.72021534299218      -12.25733006740152       -8.87373489215169
H            8.96771248672755      -10.77900583911267      -13.09060889822908
H            9.07774190268007       -9.31821647691276      -12.08988458085479
H            7.54911440428779      -10.25384888542904      -12.16260228012673
H            7.66905555666580       -8.85922788736787      -10.41761633167185
H            7.15750166581547       -8.13206700629929       -8.16178145134833
H            3.50389788004760       -3.27676832722133       -2.91624239784318
H            2.23290365441406       -1.26817881134494       -2.44588924814997
