40
 energy: -8.652284980389 gnorm: 0.000579187757 xtb: 6.5.0 (97a52f5)
C            0.83519159662811        0.48667793348912        0.14687459301949
C            2.27708143077482        0.58160113984872       -0.22382164141836
O            2.60087496710468        0.42227758218691       -1.38024198588450
N            3.18849207017014        0.86447164309228        0.78987325007478
C            4.57476749743272        1.00468867107983        0.64837581782832
C            5.37068857520134        1.28668088811602        1.75960493251111
C            6.72878659090626        1.43551706521629        1.63203901581747
C            7.35439633554570        1.31209849629968        0.39047305386719
C            8.79685717923689        1.48913187085116        0.26407406107587
C            9.49821051980368        1.68640751003652       -0.90285596886255
C           10.88228546976299        1.80484703368938       -0.60208154519191
C           11.96023188290956        1.98552140047021       -1.43109365702105
C           11.94559865457150        2.27460664247500       -2.84148174434622
C           13.08887621531129        2.01699927172330       -3.61110425967645
C           13.11403392603102        2.28808970250297       -4.95590563702060
C           12.00624093095904        2.84077780225930       -5.59182997670102
C           12.03262096870619        3.11647756850090       -6.96449123623659
N           12.05263252784700        3.34667684880604       -8.10289020761637
C           10.87564205432345        3.12593646781652       -4.83179526434982
C           10.84500214411726        2.85461435483347       -3.48701134454325
C           10.99924931830606        1.62395987250682        0.85315571602391
O           12.03286100660166        1.61322865521618        1.49600258958383
N            9.70111047451923        1.46486376102734        1.32008534095786
C            6.55692035789890        1.02647018520932       -0.72003078380273
C            5.20044981146289        0.87601086367164       -0.58951230543330
H            0.39255255345530       -0.40482582120863       -0.29495353325475
H            0.29114492345133        1.35291897519949       -0.22687449556364
H            0.69875287248296        0.43483916617287        1.22597800428442
H            2.81874115106863        0.98208339149304        1.72612963351917
H            4.90446113177167        1.39048017093618        2.72362356879143
H            7.32381819458693        1.66821327374378        2.49685391615875
H            9.06758855195580        1.68362670234164       -1.88614755200085
H           12.92846874322193        1.89299867120891       -0.96917405326222
H           13.95288820928065        1.58681101827993       -3.13434616621739
H           13.99538136634288        2.07576714092093       -5.53702518207525
H           10.02368221451560        3.57303698976598       -5.31554123872056
H            9.98738718554378        3.14630283191361       -2.90942721685696
H            9.48823150279133        1.26105398756109        2.29052495748394
H            7.01527602618603        0.91266078436919       -1.68639638859171
H            4.59151286720675        0.65529948638408       -1.44734506635183
