60
 energy: -12.180578757318 gnorm: 0.000739631371 xtb: 6.5.0 (97a52f5)
C            1.31957135698948        0.21930538768969       -1.12469212241089
O            1.99770265739956       -0.02842922592608        0.08613007565474
C            2.64808266877953       -1.26168891920515        0.15207739697407
C            3.32886722410445       -1.57456054403419        1.33415134845761
C            3.99270888373106       -2.76509008028688        1.47948321328007
C            4.01607371633007       -3.70880157937143        0.44868229193487
C            4.73177279735731       -4.95672778098357        0.63540408866208
C            4.92577301581424       -5.88640011845950       -0.31574871914512
C            5.64067201755157       -7.13811350265634       -0.15265443530665
C            6.12851879613771       -7.54248387622050        1.07430921768935
C            6.80624392213186       -8.74186331126397        1.16733960299950
C            7.34563352131055       -9.22124364961366        2.42553970373446
C            7.22944612883966       -8.61502199326102        3.61945688637312
C            7.78669316215877       -9.10902540280470        4.86426995098308
C            7.53961481945436       -8.41784269564200        6.05380043592801
C            8.05350466806213       -8.85578614046972        7.24685961631598
C            8.84566172645963      -10.00745784263537        7.31798308159422
O            9.33182515997205      -10.38387297770788        8.57104372192382
C           10.15262070514157      -11.53016661355374        8.56732450590320
C            9.09395374704914      -10.69861740099607        6.12638260015820
C            8.57812933230003      -10.25992438487680        4.93296254995666
N            6.99124898725105       -9.50147864845459        0.08569656441282
C            6.48552946870224       -9.03825787072281       -1.05873622606846
C            6.68218937397679       -9.85310434692816       -2.24084520248185
C            7.33762221809620      -11.02154208570269       -2.21554787740869
C            7.57719029104042      -11.89009356571765       -3.35616413533866
C            8.24916788336107      -13.09893539481620       -3.16941350430413
C            8.49311132349329      -13.94418543276540       -4.22896386491313
C            8.07306858244612      -13.60248819775088       -5.49837841267742
C            7.40780736881181      -12.41100578035892       -5.70463679291764
C            7.16131251184904      -11.56246845506997       -4.64778281235364
N            5.81515505161804       -7.89770172799149       -1.23597153321055
C            3.33402300768998       -3.39976175878901       -0.73231277032411
C            2.66790583009323       -2.20904639396651       -0.87831306357963
H            0.84802155823165        1.20113505371631       -1.06537200460327
H            0.54616152868162       -0.53392434781244       -1.27959763392174
H            2.02649841807302        0.21778424291915       -1.95520456935473
H            3.31870489742460       -0.85305035538381        2.13160875262675
H            4.51033813936992       -2.98235009401292        2.39785795799881
H            5.14443150480661       -5.12355988492208        1.61293616210375
H            4.54415023930445       -5.70455669295591       -1.30233791116211
H            5.97848793336078       -6.93514234647199        1.94462502390402
H            7.87690274375773      -10.15200244546432        2.36675966844750
H            6.68152897103257       -7.69318567362061        3.67974330549880
H            6.93400942825894       -7.52845052928825        6.02463478268233
H            7.85713176640350       -8.31813853567362        8.15731634908950
H           10.49129619728743      -11.71957079633453        9.58678552299038
H           11.02370099726267      -11.36311104212706        7.93244960954715
H            9.58536353933659      -12.39389617455025        8.21826130605539
H            9.69876881064996      -11.58660225875403        6.14351653224259
H            8.79535089613673      -10.81012415873258        4.03559266795408
H            6.27368751900926       -9.48084310577109       -3.16056942543547
H            7.72232436422021      -11.35083841970597       -1.26746138772665
H            8.57818661104578      -13.36777881918402       -2.18028679019749
H            9.01324900802521      -14.87405024574567       -4.06685711504573
H            8.26441931138677      -14.26450616882802       -6.32699041132268
H            7.08079768613160      -12.14356831932760       -6.69620845394659
H            6.64459233795023      -10.63631139504395       -4.82362822387758
H            3.32146551346780       -4.10938321746984       -1.53965485708228
H            2.15353815387295       -2.00322195816817       -1.79907423796590
