46
 energy: -9.215255126581 gnorm: 0.000416410010 xtb: 6.5.0 (97a52f5)
C            1.39471665828225        0.63105334895076        1.15672378928409
O            2.01052615593061       -0.00885114540473        0.06185156410875
C            2.58180145305741        0.85246346736628       -0.87623338617340
C            3.17486016312214        0.27852947939560       -2.00632201755918
C            3.75497949878636        1.05371173776881       -2.97662152728473
C            3.77834593860618        2.44715480542511       -2.86881480945843
C            4.39622383062006        3.23577228435015       -3.91761951001196
C            4.57908004472347        4.56710431636291       -3.88128444003160
C            5.18735260521791        5.37046505308043       -4.92493442483630
C            5.52942523626996        4.83369847366987       -6.15188960335176
C            6.10717846143014        5.64673792978298       -7.10873695581166
C            6.48093517749405        5.14294812741424       -8.41677169737883
C            6.22264455745161        3.91224959523188       -8.89205744192161
C            6.59998537634499        3.42856925942150      -10.20652001206846
C            6.14277542030525        2.18096390838732      -10.64049962970432
C            6.47592710733872        1.69669002791746      -11.87884975573281
C            7.28820816739086        2.42999974335915      -12.75106349104422
O            7.57769726853924        1.86454104407810      -13.99395544469742
C            8.43992512862466        2.62856808289714      -14.80620032168229
C            7.75080867238854        3.67669642554835      -12.31405316773423
C            7.41506260461966        4.16147066776050      -11.07502563814638
N            6.33812497762657        6.93714571796156       -6.84691746561171
C            5.96523165199742        7.33589795843140       -5.65167961097556
N            5.40609057459212        6.66439897163162       -4.67026766731710
C            3.18667017026386        3.02290156587347       -1.74000365484558
C            2.60351828172506        2.24791546560989       -0.76927101484270
H            0.97245381862865       -0.13235551677490        1.81157089384627
H            0.59040434003919        1.27864905355308        0.80477984630853
H            2.13378971538075        1.20623491909294        1.71615482350739
H            3.16284969814077       -0.79318664377721       -2.09659532988483
H            4.20412436668439        0.58884011753566       -3.83745886536740
H            4.74063614142706        2.69122211392768       -4.77709965344097
H            4.27421375773769        5.10878446392949       -3.00622597793723
H            5.34499366730953        3.79872126876831       -6.36065141680396
H            6.98853389514649        5.84611939634880       -9.04923909571924
H            5.67786442109235        3.22359853534687       -8.27331546754272
H            5.51492206200022        1.59900845490786       -9.98784037225416
H            6.11607764317683        0.73752509316581      -12.20657385117970
H            8.62099364540736        2.08021135246245      -15.73166296509768
H            9.39189856828798        2.78339635219245      -14.29638676869713
H            7.97364377191933        3.58487814514994      -15.04727721272272
H            8.37899438646887        4.26540230372581      -12.95724300241750
H            7.79670385808647        5.11761405761626      -10.76526536948658
H            6.14813521159820        8.38115149680892       -5.44253697837592
H            3.17746666758654        4.09249385506008       -1.63215082112902
H            2.15597518114017        2.72245486869362        0.08478491921096
