41
 energy: -8.278452962853 gnorm: 0.000547283179 xtb: 6.5.0 (97a52f5)
C            1.51811181244776       -0.03292216667914        0.90987352967237
O            2.39525963252867       -0.09834037086482       -0.19179113153647
C            2.98384171386156        1.11625311831744       -0.54503660967155
C            3.85916497366031        1.12036250603725       -1.63777519129861
C            4.47382878011983        2.27304703388346       -2.05295798318028
C            4.25165365255841        3.48688327539741       -1.39551595713903
C            4.91389064580812        4.68892170381325       -1.86744055045639
C            4.89952939158037        5.88109422392645       -1.24819666962998
C            5.55492335466227        7.08385934310106       -1.73281012215224
C            6.13519912899409        7.17958750399464       -2.99148243455809
C            6.72392367754330        8.35808784430214       -3.35363123769310
C            6.73556254120296        9.43588235549085       -2.47070070328324
C            7.37859605899217       10.70887516291956       -2.86623513199865
C            7.38220139916620       11.10117296190185       -4.20229860353538
C            7.98288166417252       12.27509742842371       -4.56902281475422
C            8.57012200105198       13.05080691742045       -3.58943036741006
C            9.27413848501705       14.31966058757524       -3.92079540226025
C            8.51754957563903       12.57910102218439       -2.29176739053254
N            7.94384790093792       11.45157426905129       -1.90698369869862
N            6.18402611994101        9.36240719682043       -1.25212551041989
C            5.61894946471254        8.21644698119782       -0.92686147062028
C            3.37848180613760        3.48504018803383       -0.30279531245226
C            2.76049061013839        2.33248514748952        0.11230727414787
H            1.11906019758119       -1.03073833665572        1.09753179118871
H            0.69031415080594        0.64198711872385        0.68737748603144
H            2.05726072749880        0.30293875679142        1.79684562027859
H            4.03786561959854        0.19050116511832       -2.14819321341330
H            5.14192218469154        2.25097909591914       -2.89691104427940
H            5.46968876774756        4.59419738785665       -2.78206256851616
H            4.38228490237236        5.96859838961830       -0.31071241257941
H            6.11488104291279        6.34755169642619       -3.67266442042825
H            7.20091367393943        8.44894153516221       -4.31363336340425
H            6.89263916970693       10.49190972730912       -4.94164477075824
H            8.00159360326688       12.59434858365768       -5.59725338619551
H            8.85447877292324       14.78012083002243       -4.81569578132576
H           10.33405275652451       14.13755321740423       -4.10123899658366
H            9.18946641843598       15.04043283627363       -3.10683262335067
H            8.98244557485965       13.16747198360568       -1.51666644962886
H            5.17667668995804        8.16644029695722        0.05531804108765
H            3.17654072138828        4.40506342793230        0.21579392219087
H            2.09288063491932        2.36645805412602        0.95387565914916
