58
 energy: -12.246653636013 gnorm: 0.000822571788 xtb: 6.5.0 (97a52f5)
C            2.35377041239844        0.15156439192824       -1.04892326490854
O            2.04480875895959        0.17228995289321        0.32666976669041
C            2.69363625420792       -0.80064513370156        1.08808028713543
C            2.41465702685686       -0.84582093824126        2.45873451320010
C            3.00623200271978       -1.77423462798418        3.27539867749561
C            3.91532147235490       -2.70750782038708        2.76805809258760
C            4.52428895625090       -3.67312968350064        3.66345060421768
C            5.48229726534167       -4.55385611446276        3.32608541719051
C            6.08984990959989       -5.52121826606011        4.22208301504434
C            7.16900804214901       -6.28972068057915        3.77397026024302
C            7.76881396831511       -7.21358926272919        4.59347606673920
C            7.31239931451491       -7.41004180500621        5.89374725470164
C            7.94072312656350       -8.38552447132456        6.77175438978643
N            8.98366996794236       -9.15447757820117        6.43676396709809
N            9.28251684513148       -9.90044646619743        7.45576009640663
C            8.43127252120582       -9.61594610038999        8.44829172904916
C            8.43942811682811      -10.25158653376361        9.75762322678722
C            9.39068129147001      -11.21367075679610       10.08384374971728
C            9.38651132753271      -11.80465566548193       11.32328067403358
C            8.43441619925785      -11.46143481369162       12.28476183082515
C            8.45021539728487      -12.10831267525262       13.59185439743519
C            7.57944065801490      -11.89215860164038       14.61459733809572
C            7.84474186052655      -12.68038382890710       15.78792430504844
C            7.12854702530672      -12.68276093274718       16.99712687379672
C            7.53257364398087      -13.50758547587275       18.01513577134672
C            8.64309952604369      -14.33906872507330       17.86160278134244
C            9.35331807431989      -14.34813373512133       16.68584618931514
C            8.95410176546835      -13.51795397577849       15.64581925202599
S            9.64486277562280      -13.31212219176372       14.05495479719402
C            7.48321720439051      -10.49434042236966       11.94987420965638
C            7.48750729920632       -9.90210902032067       10.71014697419774
O            7.55814577221352       -8.65024284271981        8.05107291197519
C            6.23633602357495       -6.65315742969930        6.34646659270016
C            5.63616944812486       -5.72684415730173        5.52909016012334
C            4.19437928683344       -2.66506391952160        1.39805570895019
C            3.60126608564480       -1.73740963861519        0.57930591509324
H            1.78785741229423        0.94239735356802       -1.54327562790490
H            2.06851834024485       -0.80902230019891       -1.48059362341305
H            3.41928069820068        0.33569579444303       -1.19387621446533
H            1.71904963277066       -0.12930201108954        2.85842905207352
H            2.77593235454275       -1.78857681613055        4.32688059619166
H            4.17772129693849       -3.65647405561523        4.68010992419538
H            5.85418425720251       -4.54689785697499        2.31841561990113
H            7.53171273411557       -6.14672531099837        2.77056479455615
H            8.60047979598636       -7.79798719433247        4.24102313124096
H           10.12850974039775      -11.48661511158237        9.34994783242053
H           10.12411861209813      -12.54820982496016       11.56831987110589
H            6.75824610871124      -11.19796363421359       14.56632266628043
H            6.27316866854236      -12.03993493308467       17.10865266673174
H            6.98764618559316      -13.51560910671970       18.94469927162622
H            8.94479438113349      -14.98001609138787       18.67354616407130
H           10.21100354831788      -14.98517679871124       16.55654989768795
H            6.73864992518244      -10.21029280614856       12.67177924346226
H            6.75260359716771       -9.15753312412065       10.45650570422699
H            5.88232487818660       -6.80835469989442        7.35109377248079
H            4.80086052601785       -5.16086615985000        5.89991798397878
H            4.87956603442004       -3.37699961985712        0.97419548740465
H            3.83772664571644       -1.73260574574107       -0.46899274614292
