82
 energy: -15.626152766057 gnorm: 0.000840634554 xtb: 6.5.0 (97a52f5)
C            1.85792471304165        1.05854921857006        0.04890794577520
O            2.02760889771189       -0.33960302908990        0.03230339678862
C            2.70371496217378       -0.83543205854055       -1.07944208452341
C            2.88122126307472       -2.22145502288519       -1.16503989712284
C            3.53170671269633       -2.79051071035847       -2.22761597495836
C            4.04693174245733       -2.00644157953934       -3.26406345662847
C            4.72714411796794       -2.64525529490219       -4.37325489011757
C            5.35363222079047       -2.00644295115123       -5.37618278450012
C            6.03071331873849       -2.64614112410908       -6.48927907492636
C            6.77355825358353       -1.86894532078110       -7.38091461872846
C            7.42642709194801       -2.43884436472735       -8.44554799348207
C            7.36298766192490       -3.81433343721623       -8.67817837559291
C            8.06174855217117       -4.38285217897485       -9.81735961718521
C            7.89020235786375       -5.62869739419329      -10.29013531485692
C            8.58794513060381       -6.19654360514803      -11.42980381726906
C            9.69401277648683       -5.55467522602619      -12.03737222175582
C           10.31781099664630       -6.11368224970750      -13.09884938713855
N            9.89882400995893       -7.32410392148858      -13.62545392591008
C           10.53912414870761       -7.88669261852201      -14.71692825900214
C           10.13431841454447       -9.06652220438888      -15.23892257583740
C            9.03709025697897       -9.76513609356377      -14.67945735791680
C            8.56427865224467      -11.02872002987386      -15.21599190860332
C            9.18652464318083      -11.75303135704183      -16.16101831331156
C            8.70792579165792      -13.00892045761618      -16.71072700525379
C            9.53673323286073      -13.75164373561779      -17.55415043904278
C            9.11447608342253      -14.93936028021782      -18.09777176585949
C            7.83945284754243      -15.44304787592602      -17.83090694140111
C            7.42830305014281      -16.69921748433967      -18.43039529073295
C            6.20668840464482      -17.25039419915577      -18.32919925194034
C            5.79550035239205      -18.50248162736584      -18.93268004226527
C            4.46704709450164      -18.92107278979305      -18.81209336750738
C            4.04160342775724      -20.09670953968997      -19.37149814571291
C            4.92041348964406      -20.92260729675644      -20.08254344746387
O            4.40610296145291      -22.09962299432195      -20.61961277854691
C            5.33990234743616      -22.89157586200085      -21.31638939500219
C            6.25184341907402      -20.50473172284613      -20.20091818373955
C            6.67557330612825      -19.32699565327538      -19.64115688923601
C            7.00931925146828      -14.69953604172000      -16.98834718582899
C            7.43284542635760      -13.51219332800894      -16.44218155621467
C            8.40014385734151       -9.20372228229855      -13.59651586196993
C            8.82252998400042       -7.98010359555711      -13.05392326743518
C            8.17744230588137       -7.40300455277736      -11.94899036947169
C            6.62056795836091       -4.59259802273272       -7.78709612593486
C            5.97066660393483       -4.02282279570610       -6.71928496175716
C            3.87067908677519       -0.62131645419553       -3.18027840595739
C            3.21860367436438       -0.04993718572463       -2.11808497425832
H            1.30689060867655        1.32877725622969        0.95087045644621
H            1.28336751182342        1.37309421780817       -0.82350955405591
H            2.83100781958268        1.55129683726999        0.06729229621143
H            2.48979275825357       -2.83162364143785       -0.37068536931843
H            3.65445249114304       -3.85886698393792       -2.27127924390000
H            4.73455185661778       -3.71923634008216       -4.36563102062681
H            5.38019601803052       -0.93292225901840       -5.36373911131860
H            6.83330285003251       -0.80606164057165       -7.22206837365411
H            7.99372732660060       -1.82151105834879       -9.12039665610367
H            8.74515780548698       -3.72946880875724      -10.32732640911840
H            7.16107922730809       -6.26053279559309       -9.81757785135719
H           10.05130533456918       -4.62156459688675      -11.64114500267590
H           11.16001637595827       -5.62739064724356      -13.55887151661015
H           11.36986461953244       -7.35370127679043      -15.14487724576599
H           10.64107188048194       -9.46985184678352      -16.09671013793425
H            7.64959443265173      -11.40691604340838      -14.79874328115097
H           10.12642087843116      -11.39944385210621      -16.54218673635593
H           10.52315434224952      -13.38162937534046      -17.77452617735472
H            9.77087831339253      -15.49607426850608      -18.74412949664531
H            8.17477892780609      -17.20962959549082      -19.00967141419920
H            5.45315535047170      -16.72773049735270      -17.77029182851164
H            3.77201158042828      -18.30288029870132      -18.27068884748881
H            3.01732692259593      -20.40996819443714      -19.27550920718483
H            4.82932172740316      -23.78140848737748      -21.68731473261954
H            6.14183172358828      -23.19821822760446      -20.64354060556381
H            5.74046539744029      -22.33443972229876      -22.16435797244396
H            6.95423228100495      -21.11506836747793      -20.73814142852002
H            7.70560445866692      -19.03810583658960      -19.74585528234095
H            6.02305251913357      -15.06018178973300      -16.75905943263481
H            6.76516356961204      -12.95674538902848      -15.80875140902419
H            7.56251979653879       -9.71056669938314      -13.15288285899517
H            7.34095824552530       -7.91316826120602      -11.50705526352144
H            6.56811341048535       -5.65692816166051       -7.92936144295657
H            5.40088387922259       -4.64862851295027       -6.05656605035889
H            4.24517579140986        0.00948815551845       -3.96583850184206
H            3.10024711525038        1.01752534055899       -2.08505713118816
