46
 energy: -9.616781397135 gnorm: 0.000589933438 xtb: 6.5.0 (97a52f5)
C            1.52653451110830        0.80109729759619       -0.33195774764742
O            2.05008255376514       -0.44196403456064        0.07620664584111
C            2.69845172983349       -1.16461154252981       -0.92871835842009
C            3.21377806631006       -2.42130315710204       -0.59421644965729
C            3.86275521555202       -3.19437395041713       -1.52212128622046
C            4.03480959218115       -2.75222087052966       -2.83718527005724
C            4.72635860333399       -3.59855985004176       -3.79047015803327
C            5.03329530688379       -3.26137260888610       -5.05579467831783
C            5.72325939635880       -4.11054603951221       -6.00849405225073
C            6.06994577506925       -3.59369819638044       -7.27569346433789
C            6.71744027802669       -4.36143663066405       -8.19438842379251
C            7.06279144127649       -5.70073244044829       -7.91408267722678
N            7.70287469047632       -6.43987184271459       -8.84153448130031
C            7.96604923713591       -7.66171301454355       -8.47201184967708
N            7.70674950604812       -8.29465682197194       -7.33531206894705
C            7.08093970739441       -7.59252829137748       -6.40671992870313
N            6.76930463764152       -8.18289738112768       -5.17587528404773
C            7.01302226428721       -9.50023414272689       -4.74553070383104
C            6.64167168451387       -9.88762161024823       -3.45748291057563
C            6.86351196264346      -11.17295296665869       -3.01718415943322
C            7.45877783205777      -12.10003808137431       -3.85055077653586
C            7.83332438756393      -11.73467051087423       -5.12861653474959
C            7.61290746979277      -10.45014705395462       -5.56786281335665
C            6.72279796300898       -6.23619438227932       -6.65529170555660
C            6.05600871968107       -5.42174507912390       -5.72528930359620
C            3.51991313682275       -1.49618506324664       -3.17337518349501
C            2.86927767443294       -0.72220829107250       -2.24517024372623
H            1.03061478443412        1.26670066369607        0.52083949329414
H            0.79522384710068        0.65429370179074       -1.12764211262478
H            2.33359797635497        1.45241374051419       -0.66940362938763
H            3.08745119839030       -2.76913656400869        0.41553990753723
H            4.25098957591378       -4.15796282228302       -1.24034403732647
H            5.01962515974524       -4.56677590712784       -3.43004852112645
H            4.76484476394002       -2.28223664831879       -5.40624285757424
H            5.81550918926684       -2.57407060843731       -7.50872286748372
H            6.97894221535608       -3.95796140930555       -9.15657118814669
H            8.47934912736284       -8.26005410202247       -9.21241116153689
H            6.30115763596307       -7.60090899813150       -4.49293023100887
H            6.17796830366029       -9.16613283104897       -2.80780921801241
H            6.57192435471670      -11.45708410947391       -2.01932263459669
H            7.63049189339637      -13.10593904816538       -3.50411915285750
H            8.29776561435983      -12.45591316116936       -5.78098872235697
H            7.90393809949316      -10.16234831587231       -6.55886405384263
H            5.78749585374315       -5.82603721267874       -4.77126218479347
H            3.62836403670242       -1.12964789975561       -4.17816741683039
H            2.48661302690253        0.23865808856870       -2.53643554369464
