30
 energy: -5.926281822044 gnorm: 0.000538178996 xtb: 6.5.0 (97a52f5)
C            1.24802850469232        0.21767303035022        0.51735722291692
O            2.27669394629474       -0.28630933989209       -0.30561198449739
C            2.82004462074045        0.64196746754164       -1.19640018404452
C            3.83325839157202        0.20412827389571       -2.05776598411894
C            4.41740116588457        1.05490898131413       -2.96067330114731
C            4.02339314067685        2.39327405051956       -3.05124792819708
C            4.66613560221859        3.26720538708868       -4.01716118700296
C            4.44827226089380        4.58702546347129       -4.13680231400219
C            5.08974383643104        5.46511031340819       -5.10548621842631
C            4.91095818062435        6.84656749737048       -5.00335563585254
C            5.50138565076457        7.70660533212958       -5.90285562944395
C            6.28128946023790        7.20858734155501       -6.92736580513533
C            6.46772507614912        5.84602559102051       -7.04942676284781
C            5.87959084855961        4.98197103769818       -6.15132959174172
C            3.00941905222011        2.83213258070010       -2.19371976875446
C            2.42304524104223        1.98143735144211       -1.29038118393203
H            0.88869980143393       -0.58603605909462        1.16155280838357
H            0.41861797488260        0.57307907764183       -0.09584872345087
H            1.63141421255816        1.02483963951801        1.14343796549135
H            4.14512378451763       -0.82339258599138       -1.99416879306665
H            5.19550740580291        0.69470703043530       -3.61189351243073
H            5.38333283496621        2.80380608513838       -4.66928115700948
H            3.75930744348714        5.05817526568575       -3.46048606559314
H            4.30353662374407        7.23765323010324       -4.20482859721672
H            5.35422490059726        8.77011154157856       -5.80674636213602
H            6.74244281343827        7.88206494674485       -7.63127078906345
H            7.07323653890445        5.45711684323148       -7.85201103295633
H            6.02220898714580        3.92244420275149       -6.26714645182570
H            2.67473735508699        3.85260091904624       -2.24581666514837
H            1.64667434443086        2.35216950360311       -0.64626636774583
