28
 energy: -5.651318057190 gnorm: 0.000494999130 xtb: 6.5.0 (97a52f5)
C            1.23153288279330        0.39703181120497        0.08348503577383
O            2.31131959760763       -0.49522863500995       -0.07087035797470
C            2.95336990766740       -0.43221399976222       -1.30807985526458
C            4.04368377968647       -1.28406533549232       -1.51696166094387
C            4.73169386360324       -1.28151367580526       -2.70243899753349
C            4.36726383979456       -0.42583006456065       -3.74603974247076
C            5.11813348009628       -0.44852059372804       -4.98630667524840
C            4.90136822365209        0.36085112784465       -6.03784689563840
C            5.63927206747148        0.35358332228018       -7.28498601688783
C            6.62938217257568       -0.58084667687564       -7.55134915933824
C            7.27229235777230       -0.51227816600425       -8.75282995689584
N            6.99353999523001        0.39942962328139       -9.66203239701161
C            6.03884883728725        1.23199073900410       -9.30571911846232
N            5.33706805909433        1.28319360328816       -8.19443966203290
C            3.27529119209592        0.42349876640578       -3.54067425439255
C            2.58588330625342        0.42141644519984       -2.35456814730564
H            0.81364271410325        0.26421358440839        1.08234088484884
H            0.45925518212083        0.17754543604456       -0.65510790228718
H            1.58202042075422        1.42487523520927       -0.02085973212798
H            4.33157049045490       -1.94431310042223       -0.71815644275321
H            5.56887096753235       -1.94440715849807       -2.83864313501052
H            5.91222742923224       -1.16940832582424       -5.04548918950817
H            4.12458085778980        1.09862267176631       -5.97320655007175
H            6.87895217821817       -1.34678491095843       -6.83984346005692
H            8.04620673776427       -1.22688931305446       -8.99397721072083
H            5.79558421916224        1.99110427897932      -10.03736391828004
H            2.96296881568030        1.08790263482758       -4.32584745748992
H            1.74917642450364        1.08441067625237       -2.23138802491546
