52
 energy: -10.441788926374 gnorm: 0.000582361975 xtb: 6.5.0 (97a52f5)
C            1.02893009737903        0.65473741320794        0.22678728865956
C            2.45203175182609        0.48965459320381       -0.19133163166460
O            2.70177690553552       -0.06234652732098       -1.24116965002566
N            3.43087789529545        1.00057191796942        0.65745315184444
C            4.81765422372531        0.95266658983479        0.46570971930080
C            5.67595214963076        1.49980687248186        1.42122789275125
C            7.03648843109637        1.45745091537597        1.25047163452056
C            7.60120041379682        0.86222932838659        0.12069985807970
C            9.05558999646603        0.81146638394192       -0.06077768557907
C            9.72359271890160        1.08467873834482       -1.22924105444625
C           11.11796563815075        0.89309805887154       -1.03485917769243
C           12.16584849181106        1.01921255295483       -1.91094754750434
C           12.14044899106372        1.54891935937304       -3.24937481757067
C           13.18174657838102        1.23491187219996       -4.13444269332976
C           13.19519210388515        1.72493746283789       -5.41610824474955
C           12.17910088429845        2.56118885475402       -5.87009561547608
C           12.19207838855333        3.05878257218759       -7.17926736787332
N           12.20296596283830        3.47128635725540       -8.26532215051246
C           11.15470171942971        2.90139043657075       -4.99077985364529
C           11.13589816279235        2.41162431593409       -3.70868936635586
C           11.27887704753580        0.42229898762987        0.34543511904836
O           12.32101075388928        0.09166567302012        0.88296464719147
N            9.99557259070185        0.42244677172632        0.90447579757910
C            9.71986307990765       -0.18763760818629        2.20776783098163
C           10.57032668320105        0.42126237937462        3.32660612673517
C           10.30851777951446        1.92017258547350        3.45772119064546
C           10.34211976435457       -0.30348118940402        4.65374439454323
C            6.74166114331346        0.32809439011346       -0.84203740342342
C            5.38232787714581        0.37027699188909       -0.66735885319654
H            0.47652128968799       -0.26714411613310        0.05150657164458
H            0.55285326651091        1.44780665949425       -0.34791326654159
H            0.94822028146931        0.90178591464859        1.28430460227059
H            3.11262451399895        1.45676512722411        1.50458984633953
H            5.25548403080476        1.96054072439850        2.29773687789382
H            7.68483150646443        1.91083396311316        1.97896188618322
H            9.24015917502262        1.34190594755935       -2.15293491378596
H           13.11906792552847        0.66860544602520       -1.55387614717328
H           13.97342934640413        0.58738635014699       -3.79856191049515
H           13.99527135473989        1.46650436729727       -6.08879447660232
H           10.37732254732934        3.56434177045683       -5.33076749957698
H           10.37087345314946        2.74005868491666       -3.02973364315784
H            9.91145684250043       -1.26049281176971        2.12134760317631
H            8.65933791846379       -0.08157898038137        2.44085917668207
H           11.62676549469714        0.28654074927290        3.03243898515552
H            9.28287112448061        2.10532614084137        3.77492166514565
H           10.45939923302929        2.43120320244354        2.50627170336505
H           10.96741517490544        2.37868327415762        4.19586583732438
H            9.30504340878182       -0.20210601885012        4.97285991170599
H           10.97120909508919        0.10507509014995        5.44504901277705
H           10.55826535305798       -1.36901851443608        4.56949820077663
H            7.16195392354936       -0.13269081311914       -1.71912341115807
H            4.72467551592223       -0.05085920746436       -1.40533815077731
