55
 energy: -11.173456199117 gnorm: 0.000878236001 xtb: 6.5.0 (97a52f5)
C            1.59404145523452       -0.10372264107883       -0.35895743450680
O            2.42273240507704        1.02202929123347       -0.17369884097054
C            3.03216664739840        1.10162883163791        1.08192034533384
C            3.84140729260379        2.21321844788705        1.34050721415406
C            4.47511560444092        2.36783728572094        2.54660557071082
C            4.33525207019767        1.41699416034156        3.56089318355368
C            5.02392243160503        1.61055811842942        4.82077145473048
C            4.97598154542414        0.78917383945001        5.88203438123572
C            5.68577576471170        1.07918123448606        7.10036914388062
N            6.30802071240953        2.25381868891178        7.33433365433114
C            6.77071511218182        2.20003179604507        8.57945215918205
C            7.50746366627582        3.28555462014877        9.21871163372064
C            8.00910428882888        3.16560349295242       10.51326000844031
C            8.70646852585568        4.20136633789541       11.09449726397945
C            8.91589613029968        5.37442648203649       10.39672930360421
C            8.42465127321357        5.50979768063359        9.11323426781881
C            7.72745913646407        4.47586809714897        8.52962262327878
N            6.45923963244416        0.99145497953479        9.17688787026222
C            5.78653815225837        0.24854098737277        8.24922916047489
C            5.33412513824804       -1.10293918096359        8.45863533743101
C            5.12682684570292       -2.00617223944481        7.48074165015161
C            4.67151518322156       -3.36688263829316        7.67310764261162
C            4.57764558879626       -4.22488246462539        6.57291435562978
C            4.14657668762549       -5.51804268079412        6.71894782471514
C            3.78297554736428       -6.02578173954947        7.97128428231518
O            3.35041132920088       -7.35314430022769        8.03207775548983
C            2.97607515569272       -7.79484913913229        9.31772331162549
C            3.87670183444024       -5.16678123087460        9.07248052349340
C            4.30881696367164       -3.87249640875320        8.92602296098051
C            3.52739207633795        0.30492267733536        3.30525049271032
C            2.89161943126148        0.15029749939719        2.09858820417425
H            1.16434410328472       -0.05880784654118       -1.36092073043639
H            0.78426114847953       -0.09485574785521        0.37281858594062
H            2.18138452549713       -1.01919164737813       -0.26814340359140
H            3.95434548673471        2.94930753671714        0.56454573622781
H            5.09229272189009        3.23200935615806        2.72297236880602
H            5.62966576007436        2.49439493262264        4.91075478097455
H            4.35752531336660       -0.08598731403375        5.84986360240511
H            7.84952990220108        2.25325114344115       11.05860224516825
H            9.09070326228652        4.09646665962978       12.09581273726084
H            9.46302049020561        6.18289509781479       10.85318553893251
H            8.58736030568861        6.42475601762477        8.56799268268341
H            7.34256449987344        4.57304805496183        7.52967780156859
H            6.71577284524651        0.68169112222383       10.11334460404723
H            5.21248268837109       -1.40717636180132        9.48148711718714
H            5.36032582930254       -1.72286485081610        6.47110642896500
H            4.85160840583165       -3.85699359525798        5.59898558880948
H            4.07790471626286       -6.17105442212242        5.86703654559961
H            2.64862149821541       -8.83306664991878        9.24838752364850
H            2.15030123575661       -7.18940606939286        9.69403809518574
H            3.82973837766891       -7.73960481377926        9.99466146165292
H            3.60596845674479       -5.52392622861396       10.04926593892486
H            4.36258291426070       -3.23601237008642        9.79083958967071
H            3.40214780793572       -0.44440576199873        4.06596449975353
H            2.27704407634219       -0.71601612646876        1.93420335608325
