72
 energy: -14.047258052006 gnorm: 0.000556633711 xtb: 6.5.0 (97a52f5)
C            1.80948980152170       -0.59379638143990       -0.15321732539048
O            2.20986509913471        0.54355116823570        0.57864519943969
C            2.87430706507889        0.26474487173657        1.77623655978010
C            3.29762842341753        1.34975409436666        2.55267085883393
C            3.95294835499592        1.16067924843738        3.74218729558543
C            4.22409317393250       -0.12474833736005        4.21919150968284
C            4.91549450734405       -0.28808107404789        5.48172746296662
C            5.28110550888935       -1.45504564756757        6.03478641344041
C            5.97072035881193       -1.53894674706301        7.30542105331857
N            6.30526367603076       -2.76651451238850        7.71271875272839
C            6.94093180775069       -2.84955708223653        8.88403277020284
C            7.31220743222295       -4.16777199216207        9.36035818020166
C            7.87209787966973       -4.44911110356247       10.55098686412276
C            8.23558235942028       -5.77472032264831       11.01038353895206
C            8.71581522057898       -5.94696633715645       12.31323771211143
C            9.06620999220065       -7.18694934451877       12.78354594213509
C            8.95880932145745       -8.32429068423480       11.97467546111373
N            9.31477591078904       -9.59531446895496       12.45560897589672
C            9.71773166146018       -9.80337488141869       13.84692982382432
C            9.29455547057936      -10.77621814622822       11.59154088647493
C            8.48292819572775       -8.15074751014494       10.66965817889042
C            8.13030556907236       -6.91071788354628       10.19990399203347
C            7.22958938082767       -1.70923593185213        9.60821840748924
C            6.84828463745704       -0.47868286877835        9.10997333918867
C            7.11838960688688        0.75107641913466        9.82891552185319
C            7.83296659883360        0.86063508849568       10.96356911577083
C            8.08558091389074        2.09683662776060       11.67635888028468
C            8.92934186912095        2.08987187478625       12.79243214822543
C            9.18888560987498        3.23923256029850       13.49452428255697
C            8.61544403724879        4.46015424970671       13.12060001771619
N            8.87873542352517        5.63786389077213       13.83981428718044
C            9.84140886560825        5.66425225412298       14.94164346496292
C            8.20436037254354        6.89747230312375       13.52363785671315
C            7.76923850412298        4.46615877885685       12.00539317985530
C            7.51148650448427        3.31682245217246       11.30154551631976
N            6.20604535538196       -0.38946199505981        7.94277888488317
C            3.80414060371432       -1.21074201835660        3.44492225617958
C            3.14619177057872       -1.02233028115890        2.25523365298901
H            1.30352848758734       -0.26496063088941       -1.06187962425484
H            1.11545902382514       -1.19305913752299        0.43776859669317
H            2.68245525582320       -1.18583541119039       -0.43146982539001
H            3.09437232744713        2.34259341505268        2.19214499231339
H            4.26802590069113        2.01097884883791        4.32265497004111
H            5.15822501654793        0.60986057395803        6.02055052776548
H            5.07250225538783       -2.38023962842775        5.53281599011097
H            7.09336224105141       -4.97505129563104        8.68766432421715
H            8.05988745392094       -3.64382277780741       11.23668654372718
H            8.80658082267889       -5.08530093518211       12.95241287411242
H            9.43678019569588       -7.28817442711145       13.78792933674834
H           10.66983193529206       -9.31177352385407       14.03723747423413
H            9.82766381558877      -10.86278113899932       14.06905790515732
H            8.96522626209500       -9.39603118427542       14.51939475201059
H            9.87617528898000      -10.59083127431342       10.69050464238435
H            8.27046165819050      -11.01651202978318       11.31205302402660
H            9.72457656138434      -11.63903573299851       12.09603813635918
H            8.38603931763421       -9.00775430663916       10.02733763942716
H            7.77341933144477       -6.81328573379287        9.19047006379374
H            7.74115447045902       -1.77864889256397       10.54747935499249
H            6.70988849770202        1.63932586786493        9.38574059885891
H            8.26976035827139       -0.02526176991774       11.38594427193657
H            9.37976798406074        1.16098391622828       13.09823012182970
H            9.83676391917825        3.20206318465531       14.35199701246181
H            9.46744458903894        5.07694278633040       15.77813035489046
H           10.01500821333200        6.68159525044066       15.28610277941264
H           10.79498113382829        5.25343127265320       14.61538936630234
H            7.12599384640588        6.75096031329220       13.50853955479434
H            8.52890863081137        7.26065966440567       12.55030665468931
H            8.42853891956929        7.65977551720680       14.26699176897796
H            7.31921134706648        5.39134159727608       11.69242269156985
H            6.85207390451839        3.35656181801675       10.45330596529401
H            3.99479884994018       -2.21185184788763        3.78800822973004
H            2.83488534038685       -1.87862267754245        1.68504801224998
