86
 energy: -17.592460043131 gnorm: 0.000633039313 xtb: 6.5.0 (97a52f5)
C            1.73768841354386        0.53989370118661        0.22485922313671
O            2.17230839849371       -0.76596665917918       -0.08472496421635
C            2.79329195260506       -0.89598489676401       -1.33018205117829
C            3.23733578380881       -2.16897245012850       -1.70643088847982
C            3.85631815308165       -2.37987858681223       -2.91175421273895
C            4.06632576767665       -1.32771208104580       -3.80746006733330
C            4.72121502770611       -1.58532229693287       -5.07386563496601
C            5.02747045794327       -0.66522429880511       -6.00221880831635
C            5.68082434430549       -0.99519760787996       -7.25174477446111
N            5.94621327091787        0.03184343262909       -8.06394987897615
C            6.54199786452708       -0.26614595863716       -9.22106987975840
C            6.83272162318005        0.82301119164729      -10.13295824552702
C            7.31278017231405        0.69739712482580      -11.38357644273079
C            7.59757657925342        1.79715478045423      -12.28343177336910
C            7.96809958978603        1.52955274624674      -13.60588105899496
C            8.24214513983466        2.54481769532519      -14.48655867952549
C            8.16576691307605        3.88544612242964      -14.09091183160328
N            8.44953638241883        4.92649989537666      -14.99088447963706
C            8.70788904521001        4.66790342204700      -16.40782468232695
C            8.49359449114291        6.32394325047006      -14.55880369740971
C            7.80036726914512        4.15266873997073      -12.76621556925934
C            7.52322132806402        3.13703203687315      -11.88612503271946
C            6.86571203806075       -1.57356235671815       -9.52753983340840
C            6.55987254601656       -2.57363455352501       -8.62505412976602
C            6.86999432682624       -3.96391773421589       -8.89569243558316
C            7.56398134822201       -4.42656147363256       -9.95102375884815
C            7.85299461873146       -5.82322675961675      -10.21301235628034
C            8.69639012208316       -6.16593295455945      -11.27517941879211
C            8.98833732839285       -7.47766450026459      -11.55341000752629
C            8.44761647474105       -8.50986859908894      -10.78704512462587
N            8.74850153977822       -9.87723162661259      -11.07935553808717
C           10.02737543923982      -10.23774343323874      -11.62578398392692
C           10.13030556486009      -11.22892704609374      -12.59886468127556
C           11.35635487852207      -11.57997082735979      -13.11749891413718
C           12.50243221645319      -10.94959176694798      -12.67332111442222
C           12.41745619321939       -9.96611619201397      -11.70705852917543
C           11.19249835564975       -9.61311552644666      -11.18713377722237
C            7.77576257805358      -10.90427255641268      -10.82800294541758
C            8.16582562221237      -12.14493652135944      -10.32961517994759
C            7.23588098669046      -13.13335207092464      -10.09805665691446
C            5.89965251890009      -12.90230027082081      -10.36099158255428
C            5.49678540227513      -11.67768123360683      -10.85708416618705
C            6.42483499279967      -10.68749168471653      -11.08903312411856
C            7.60292737522015       -8.17280488168904       -9.72957305073321
C            7.31198184409864       -6.86137108110307       -9.44676778803316
N            5.95368449159113       -2.28381670967006       -7.47122720388919
C            3.62312492015280       -0.05483941936020       -3.43479021001181
C            3.00273534425377        0.15668584972912       -2.22891236847407
H            1.26319224950346        0.52760801302526        1.20696751247433
H            1.00799191447891        0.87593200801686       -0.51341002720614
H            2.58998462336174        1.22039476551609        0.25497492010587
H            3.08027509757218       -2.98421775985142       -1.02270165477156
H            4.18980819350745       -3.36807488372326       -3.17899269937347
H            4.98512944242100       -2.60603217975354       -5.28412106341800
H            4.79387640181195        0.36892259094202       -5.83569016500592
H            6.61535634126049        1.80500262638349       -9.75771400983409
H            7.48886350445199       -0.28853866117273      -11.77222195442128
H            8.03417593552246        0.50508432928613      -13.93074400973502
H            8.53080589892511        2.30885716119789      -15.49531766784462
H            9.66713996140040        4.16725096232621      -16.52723430551487
H            8.72968077400229        5.59500062226005      -16.97711559722779
H            7.92270720837662        4.03863980495443      -16.82321001940640
H            9.14830139423400        6.42824396541573      -13.69560846005357
H            7.49472415128278        6.66443478325325      -14.29240318896774
H            8.87663192627576        6.96617763051677      -15.34928132710697
H            7.72959400176205        5.17383143100879      -12.43632807237028
H            7.25414930401650        3.37766328613125      -10.87327650233749
H            7.34669806241874       -1.80970218536858      -10.45583356951591
H            6.51375619035793       -4.66315642225527       -8.16314031393412
H            7.95504917688867       -3.72182688404767      -10.66122214564878
H            9.12051587604127       -5.38187004286510      -11.87881892303546
H            9.63049255129453       -7.72675527409255      -12.37987190275414
H            9.23347031912727      -11.71239708060983      -12.94471731857803
H           11.42185609058743      -12.34746636286306      -13.87129134645751
H           13.46186073773440      -11.22543001755123      -13.07943816272749
H           13.31150182571777       -9.47551278807122      -11.35839931531540
H           11.12125813241541       -8.85616017247573      -10.42581108630194
H            9.20736515332372      -12.31676674219666      -10.12167730511652
H            7.55100977800771      -14.08854154800206       -9.71097965112721
H            5.17256927361234      -13.67712764668827      -10.18060903683714
H            4.45466173248561      -11.49769005324804      -11.06467150463541
H            6.11817961130419       -9.73559564124948      -11.48594310946331
H            7.18792593995532       -8.96171133818208       -9.12711392372237
H            6.65086455807100       -6.63368314711851       -8.63015234842305
H            3.76501079803321        0.77336079565546       -4.10565671526811
H            2.67206883338317        1.14721868245302       -1.97389271937021
