100
 energy: -21.137526634512 gnorm: 0.000924163468 xtb: 6.5.0 (97a52f5)
C            2.08857539431873        0.78923475555152       -0.75681970921012
O            2.41963145328275       -0.35676592432718       -0.00439053016303
C            3.03027564548024       -1.38119783335923       -0.73392224418388
C            3.35626216929874       -2.55923164277634       -0.05228054758354
C            3.95516169855277       -3.61174053265021       -0.69557533585065
C            4.26420322779764       -3.54195314433527       -2.05658722532375
C            4.89466917717351       -4.67306962395150       -2.70660734774354
C            5.32492236449907       -4.71104102274169       -3.97756553840463
C            5.93842815626970       -5.88354487518334       -4.56577881202808
N            6.33134251021017       -5.76418179970148       -5.83726473003269
C            6.88487987376216       -6.84588082150385       -6.39064435806871
C            7.30728079879892       -6.76087363513849       -7.77520918871825
C            7.76340452436902       -7.78266906018927       -8.52178366646418
C            8.17684478581120       -7.68944410294118       -9.90836756278057
C            8.52159462322604       -8.85359707986086      -10.60337157470610
C            8.91480320957473       -8.80473378848560      -11.91705069229577
C            8.98534535452583       -7.59018800019731      -12.59873684016470
N            9.39564729039285       -7.53966835204407      -13.96784167699444
C            9.09734677107831       -8.62925774026271      -14.85548062496328
C           10.02016223789139       -9.03655344044019      -15.81589673994118
C            9.73403963763325      -10.07937583491678      -16.66805251377229
C            8.52096734533603      -10.73392816358660      -16.57871441669117
C            7.59389138144020      -10.34044247682423      -15.63337184504651
C            7.87785301066214       -9.29805009204421      -14.77999837482054
C           10.11725379058999       -6.40146160917496      -14.46568474583112
C            9.86456505613802       -5.90176100012930      -15.74096743836213
C           10.56005991780709       -4.81453979400836      -16.22010473574155
C           11.52204319117386       -4.20747396452606      -15.43636462189885
C           11.78641134981370       -4.69277967129589      -14.17040989775484
C           11.09151405134022       -5.77925937317345      -13.68863641073030
C            8.64823604017381       -6.42631981856193      -11.90793627816543
C            8.25223854040619       -6.47244384106350      -10.59425354225044
C            7.04467855981464       -8.00520632262032       -5.65675094228158
C            6.61625309874704       -8.03872309233575       -4.34405825480241
C            6.76077075889586       -9.22877562268216       -3.52830763920786
C            7.39598804615487      -10.35780741819387       -3.89086301046151
C            7.52817586022077      -11.54725287365263       -3.07217887926833
C            8.29479551462734      -12.62081733381603       -3.53799481036117
C            8.43692883394524      -13.76554173393666       -2.79486130367344
C            7.81785421416855      -13.89400279450362       -1.55189383517466
N            7.95770381822806      -15.09156282341649       -0.78281968251729
C            9.16111874430035      -15.87225207168562       -0.86774443503778
C            9.10568532565053      -17.26391787414192       -0.87439058460196
C           10.25822307222709      -18.01293181948120       -0.95182124976031
C           11.48757890019233      -17.38691115245177       -1.02140374503718
C           11.55978371396682      -16.00752004065366       -1.01284754892403
C           10.40852057268070      -15.25627446163336       -0.93659767792752
C            6.88934379613093      -15.53682642239378        0.06828967486247
C            7.16114340041666      -16.10962167967684        1.30843700655837
C            6.13841415062612      -16.54398129953963        2.12129023027658
C            4.82568938102908      -16.41658447871094        1.71073337924766
C            4.53956439759515      -15.85335764605082        0.48230966569191
C            5.56054538041347      -15.41791890064415       -0.33213476264729
C            7.05175986272935      -12.82637832172228       -1.08411503397394
C            6.90906390658926      -11.67914737435992       -1.82468730607270
N            6.04793900683557       -6.96510549316408       -3.78931128192852
C            3.94001117265839       -2.36644873178008       -2.74052819919595
C            3.33850262083697       -1.31350771056244       -2.09749777425815
H            1.61322205091750        1.51643218614494       -0.09714317580746
H            1.38946762971972        0.52500854402197       -1.55127152477430
H            2.99112011902060        1.23470770122260       -1.17710597212528
H            3.12271544928136       -2.62101319155976        0.99571150231299
H            4.19654099333423       -4.50791823075726       -0.15016663089272
H            5.03102472918910       -5.55868027968057       -2.11275578485762
H            5.22574762219667       -3.84761997983357       -4.60715097348376
H            7.21657179749478       -5.79024525891292       -8.22468025756838
H            7.81500000600114       -8.76055292200583       -8.08011710687085
H            8.47220071360165       -9.80012796863206      -10.09292149875012
H            9.18618416857679       -9.70736938718907      -12.43585154381620
H           10.96574514824841       -8.52686217772488      -15.87677543798541
H           10.45799703664918      -10.38614759635024      -17.40518023667304
H            8.29791567311682      -11.55021297223281      -17.24612313852989
H            6.64621763887350      -10.84911123937034      -15.56461732368133
H            7.15490222488945       -8.97997317341764      -14.04935178193330
H            9.10975044987605       -6.37514415204997      -16.34414361215406
H           10.35352716101124       -4.43647198646104      -17.20805661261215
H           12.06630722856963       -3.35677356927020      -15.81259611060694
H           12.53867000433942       -4.22125316998563      -13.55937976657069
H           11.30091852772728       -6.16878223690405      -12.70772601849060
H            8.69089507589388       -5.48543373968488      -12.42817441670977
H            8.00310966534601       -5.55767401551350      -10.08729804947057
H            7.49758118412239       -8.86894885234452       -6.10111060029385
H            6.32439158143713       -9.17013384064409       -2.54922570981033
H            7.86041752603969      -10.39984304615886       -4.85856798485419
H            8.77866623749357      -12.53973787270017       -4.49620250368908
H            9.02004002946900      -14.58747048702437       -3.17156805754033
H            8.14480101969769      -17.74557098838237       -0.82575532485466
H           10.20107324913056      -19.08914787790582       -0.95821805130947
H           12.38930539999173      -17.97407373123184       -1.08189600008500
H           12.51880626472312      -15.51848625830642       -1.06474818672482
H           10.45916153248293      -14.18168022283517       -0.91820794667104
H            8.18540931697417      -16.20169361789135        1.62480533305661
H            6.36236467900756      -16.98375285053385        3.07941721389156
H            4.02579736480936      -16.75695943637217        2.34774627789363
H            3.51572192121857      -15.75608486567531        0.16006824867226
H            5.34411177300953      -14.98982629591668       -1.29524159642496
H            6.57878159024627      -12.91159448623106       -0.12144030922597
H            6.30711979831135      -10.87587264785987       -1.43966122700272
H            4.15793093585898       -2.28704320704627       -3.79037785798969
H            3.09995679367251       -0.42488180112541       -2.65269247785292
