44
 energy: -9.367230433562 gnorm: 0.000953007314 xtb: 6.5.0 (97a52f5)
C            1.99937171213503        0.56206265345689        1.69724042416063
O            2.61122868566018        0.06765674912666        0.52767670138361
C            3.13896911947452       -1.22060377282436        0.64029026229795
C            3.74951420097249       -1.77323522547260       -0.49115386983394
C            4.29759336694499       -3.02950345870587       -0.46246290078747
C            4.26611126448756       -3.80236172697263        0.70114750999886
C            4.86164986266536       -5.12288990054189        0.69999356311806
C            4.97946019778859       -5.93596731984514        1.76125019727990
C            5.59236959351637       -7.23528583175147        1.66824797548155
N            6.07719405705574       -7.74231722727018        0.53631286197864
C            6.55619152935382       -8.95335788447915        0.86700667441302
C            7.19725926783651       -9.94559277921389        0.03827764049121
C            7.39848480686365       -9.71708255573210       -1.32330625089138
C            8.00704943113790      -10.66159856205874       -2.10636059017653
C            8.42846297535103      -11.85693710572077       -1.54397729866319
C            8.24002262997641      -12.10124098530462       -0.20655597071556
C            7.62078470022427      -11.15945614609522        0.62592734671414
C            7.40587480220890      -11.39798611665228        2.05870150946166
C            7.80097396962899      -12.58451606905377        2.69058396796779
C            7.58751358669287      -12.78357545392602        4.03186256773804
C            6.97086455612432      -11.80635902328663        4.79912806308306
C            6.57052607766507      -10.63374506017308        4.21607121852344
C            6.77757529887310      -10.41360821668897        2.85428909720518
C            6.35325831554165       -9.18299256622836        2.24150033316976
O            5.73583039627740       -8.08081305782091        2.74867767837602
C            3.65227547242720       -3.25509761334950        1.83111021746920
C            3.10268290679541       -1.99806310853767        1.80308649918022
H            1.62396776947115        1.56604642875204        1.49508166439737
H            2.72946754715936        0.61397749746151        2.50572704839777
H            1.16202086584729       -0.07730911348253        1.97844053052321
H            3.78005491186004       -1.18368618897679       -1.39004886164064
H            4.76438273855940       -3.43212920225507       -1.34472518126780
H            5.25215371614530       -5.47678541299458       -0.23715898095462
H            4.62220844594645       -5.63211571005052        2.72624453408609
H            7.06676500052867       -8.78539446209362       -1.74695686923469
H            8.15834166850773      -10.47729854026420       -3.15733403098218
H            8.90744735285155      -12.59772396632302       -2.16310819098261
H            8.57721143157540      -13.03560312004966        0.20298617870103
H            8.28070244978017      -13.35869712392911        2.12060967396669
H            7.90022011240667      -13.70552556751321        4.49427712956156
H            6.80679818783675      -11.97080165867284        5.85146621860088
H            6.08996127632793       -9.86609095198772        4.79787847960775
H            3.60340254428837       -3.83061288246133        2.73764449907230
H            2.63686119724128       -1.60756266004148        2.68893072970652
