32
 energy: -6.578298789294 gnorm: 0.000813005862 xtb: 6.5.0 (97a52f5)
C            1.52192573940888        0.00342408726963       -0.23473863617604
O            2.63661895297090        0.25255000856477        0.59101272174804
C            3.21157499443736       -0.88488980476834        1.16137102668589
C            4.32439241321843       -0.70169772421628        1.98925322273311
C            4.94692739697051       -1.76501298944802        2.58961042937417
C            4.49049675271329       -3.07135684066441        2.39477252956382
C            5.17072655611273       -4.17159063004210        3.04680549821123
C            4.84975372639982       -5.46964483038421        2.94114852408481
C            5.59191212273905       -6.48914645740357        3.63420313646025
N            5.31022911005798       -7.78130982658689        3.54752335290320
C            6.22308941785625       -8.40007286618109        4.33273899088418
C            6.40604325711897       -9.76213299101586        4.62231331683853
C            7.42137062867913      -10.12741691864881        5.46176509391935
C            8.27292664213793       -9.16843019606002        6.03140288234231
C            8.11673177865515       -7.83555479217436        5.76901812215920
C            7.08549435980093       -7.42812750094632        4.91143288829486
O            6.66765927040140       -6.20789057316209        4.45348177224035
C            3.37907430069275       -3.25714055482703        1.56739274314953
C            2.75520787414253       -2.19321403386426        0.96586523478768
H            1.16118461518313        0.95581095352789       -0.62563474556853
H            0.72673743823591       -0.46481869551991        0.34706976017414
H            1.81287892175125       -0.63397032024311       -1.07078195495105
H            4.68183353837979        0.30098690944899        2.14380221964325
H            5.80118117905627       -1.59931700713226        3.22316948639356
H            6.01060669713096       -3.92320409928577        3.67204059322881
H            4.02488113028922       -5.78446193972920        2.33192747904565
H            5.74898818072862      -10.49023516018975        4.18250304691053
H            7.57206983842411      -11.16921045134118        5.69164720099721
H            9.06347923407962       -9.49036844754152        6.68877793542781
H            8.76450828250780       -7.09517410897494        6.20173992967647
H            3.00331622825467       -4.25031311614481        1.39926725669976
H            1.90180942146228       -2.37026908232024        0.33730894211998
