40
 energy: -7.939236384778 gnorm: 0.000798227145 xtb: 6.5.0 (97a52f5)
C            2.13444450193800       -1.17487619312646       -0.49374508006893
O            2.09332322220011        0.14679721334287       -0.00047522483605
C            2.60195809025214        1.12586511249982       -0.85758002598822
C            3.13907439157567        0.83549897742720       -2.10858695833550
C            3.65216558027582        1.82030395275990       -2.92134738754270
C            3.65458372622999        3.15242939354996       -2.51911040840746
C            4.21645911483224        4.16573192202217       -3.38771452346639
C            4.32836888826623        5.47294075134530       -3.10417307576509
C            4.91478298045393        6.40953394883228       -4.02548862917681
N            5.37502901424221        6.07673492994212       -5.23330079489088
C            5.83471419238861        7.20196288933213       -5.76599577175311
C            5.65773916272939        8.26469075827020       -4.87196025387727
C            6.02623425273258        9.66631877442141       -5.06878722218769
C            5.78932195225308       10.58067722779673       -4.04857100139095
C            6.12430373161986       11.90782696355421       -4.20077246271323
C            6.70230381383324       12.34388021993822       -5.37616668706424
C            6.94388196086164       11.44840515822519       -6.39872603475925
C            6.60982612329283       10.12063525204285       -6.24908765339941
O            5.06610839354592        7.74873435182949       -3.75656785696321
C            3.10933460951947        3.45519807166511       -1.27051141853254
C            2.58056477083648        2.48678537749029       -0.43370907167768
O            2.06240093687277        2.94660315904328        0.79061235775412
C            1.37625231635681        1.99477628651093        1.56108453620984
H            3.16762066561563       -1.47303557056569       -0.67551525743121
H            1.54422892226827       -1.24946058974128       -1.40790837587029
H            1.70496508072234       -1.83834382094973        0.25786894948522
H            3.16197121821940       -0.18210564295138       -2.45262541966636
H            4.06592534938146        1.56394594402935       -3.88152436702509
H            4.58606807004519        3.83558357427913       -4.34180621979616
H            3.98696538085220        5.86149086438700       -2.16435006396230
H            6.27650027744987        7.26190036632736       -6.74862647068476
H            5.33785218568660       10.23075748664178       -3.13602961283409
H            5.93593392572295       12.60680836981533       -3.40245592928490
H            6.96497444920387       13.38216787464681       -5.49545358157339
H            7.39546530608056       11.78961449847701       -7.31590799046710
H            6.79914409990203        9.42557501133403       -7.04787105359479
H            3.08415549559211        4.47167256719590       -0.92797070335720
H            0.94080894720394        2.48702002439854        2.43174557029427
H            2.07652991777826        1.22518180727301        1.88933064717871
H            0.58389498117455        1.54488273668566        0.96118052742103
