41
 energy: -8.068296738101 gnorm: 0.000435147226 xtb: 6.5.0 (97a52f5)
C            3.25249497849329        1.12720948580752        0.50406832929490
O            4.37212343783191        0.33909728475570        0.17459133441280
C            4.08598364117957       -0.82731238035903       -0.53898953816035
C            2.80246538350634       -1.23346419742774       -0.92209980892891
C            2.61276622365784       -2.39838309254572       -1.62248168224797
C            3.69215426159416       -3.21239729813931       -1.97420185977878
C            3.48847595906171       -4.39011657844588       -2.68017232467640
C            3.27909723968836       -5.43502092589837       -3.30238064793637
C            3.03732634465974       -6.59091399298145       -4.01742099570528
C            3.27192660737768       -7.85068502641473       -3.45239462338261
C            3.89442898042594       -7.99764858118006       -2.09314542874693
C            3.43507577228844       -9.25906484331538       -1.33509071532832
C            3.27219966628726      -10.46162991683576       -2.22029266862489
C            3.34484064104515      -11.73909386431952       -1.69825183156554
C            3.13884708035032      -12.84863412920536       -2.49844877316871
C            2.84714137493022      -12.69108141164274       -3.84038192864459
C            2.76910058520501      -11.43100786517182       -4.38059381694279
C            2.98737330428924      -10.29938098680524       -3.59036559602825
C            2.89931782853332       -8.98400745854754       -4.18170642372507
O            2.42679933712251       -8.87629177692578       -5.45556291127087
B            2.75809462486995       -7.64131773163648       -6.17064330062393
F            4.09028327198846       -7.68356510936107       -6.50405871942004
F            1.98508226637139       -7.52434730253407       -7.29534797663875
O            2.54312820933330       -6.49065831940272       -5.28722051713526
C            4.97430767314324       -2.80993884577335       -1.59404048317544
C            5.16449830641246       -1.64572545430729       -0.89398382993108
H            3.60083903422117        2.00129059556072        1.05636590437904
H            2.57094840374056        0.55574849066139        1.13603894901783
H            2.75245640242063        1.45824634076993       -0.40744814926627
H            1.95213590234514       -0.62819232604683       -0.66649240689500
H            1.62076194477153       -2.70144449727279       -1.91167475617913
H            3.67966525078939       -7.10246998647168       -1.49765250887691
H            4.98357106458740       -8.01715688350816       -2.21503645925387
H            2.47775022329969       -9.06323310385929       -0.83848199179231
H            4.14327920046569       -9.49793302349661       -0.53233810208954
H            3.55398609413177      -11.86580669061929       -0.64987346034873
H            3.19818775198778      -13.83701404126770       -2.07331336945288
H            2.67992812593817      -13.55606690327996       -4.46117244180031
H            2.54014948591986      -11.29295943571277       -5.42348317452746
H            5.81467678533057       -3.42846005429048       -1.85926953647742
H            6.15264133034801       -1.33648816256130       -0.60209175838660
