68
 energy: -14.826512601372 gnorm: 0.000717193401 xtb: 6.5.0 (97a52f5)
C            1.37956304055860       -0.37469531256567       -0.18844141635575
O            2.65801655663067        0.13569309971940        0.11770068474683
C            3.13070277139210       -0.19653685801993        1.38636670943951
C            2.44023098718299       -0.99082396980307        2.31219659861063
C            2.97952525725954       -1.26934358751538        3.54283661098661
C            4.23036167526245       -0.77172991329820        3.91097249716959
C            4.77508505744383       -1.05024343445312        5.16483766536288
C            5.26212654013445       -1.27732670425295        6.27094260720459
C            5.81698350670485       -1.49702666575455        7.51941767393035
C            5.80965910058958       -2.79936840296144        8.08879048184534
C            5.24524964756497       -3.87975046735099        7.40845987786573
C            5.22524359793621       -5.16411296545534        7.94960810601720
C            4.65036752988118       -6.26333123276523        7.26049153894532
C            4.64466588539846       -7.50397585892643        7.81602004147557
C            5.20920108592569       -7.72246622343337        9.08542713013276
C            5.77103567746594       -6.69697818542673        9.77860599826552
C            5.79847446064373       -5.38575209279813        9.23671497255562
C            6.36596146458660       -4.31296248595693        9.92219550391889
C            6.38990104296072       -3.02338251579621        9.38808594477585
C            6.97355394228180       -1.94319244293306       10.10440653836530
C            7.54204490543021       -2.15775253755369       11.34763546270606
C            8.05950003178829       -2.33555196830917       12.44893600487918
C            8.66222447425634       -2.52324698823383       13.69312945117380
C            9.14205082441988       -1.43579094413101       14.42404716537558
C            9.74148131091462       -1.61856628412477       15.64362569192044
C            9.89281060816501       -2.89794710064411       16.19505268127146
O           10.51755674510578       -2.99645897265673       17.43737780097653
C           10.66430246882856       -4.31266730827321       17.92199358828677
C            9.40649233379478       -3.98638924902318       15.45783668944348
C            8.80695506690057       -3.80012896856602       14.23765093435078
C            6.97596226033936       -0.63981897491437        9.53722311118132
C            7.53512679472697        0.44235955998229       10.21944247246169
C            7.54794256543530        1.72808388163919        9.68133725477142
C            8.11404921275787        2.82982099389096       10.37368957298896
C            8.10967364710267        4.07216804842283        9.82185674973979
C            7.54438840242801        4.28993666685005        8.55265594445535
C            6.99217031384529        3.26178075301072        7.85564824067931
C            6.97452960787011        1.94912156854742        8.39428137812099
C            6.41407742508509        0.87446866357005        7.70625797151406
C            6.39569696749708       -0.41608107555971        8.23831002963862
C            4.92255696075323        0.01879252575553        2.99282312308050
C            4.38640547107865        0.29904550959142        1.76231005788973
H            1.10181486804073       -0.04360046973839       -1.19022731565015
H            0.64542602174320        0.00553203991723        0.52337948093091
H            1.39803372875693       -1.46523566577340       -0.17007506036878
H            1.47487551661252       -1.38843259962784        2.05771348715914
H            2.43855851372132       -1.87986854684490        4.24567659789506
H            4.81208541444745       -3.71893453178387        6.43863471329022
H            4.21751093695911       -6.09919738471286        6.28884028390354
H            4.20458834775652       -8.33024111203784        7.28222189402002
H            5.19447580799079       -8.71349024520863        9.50855021245583
H            6.20232103186198       -6.86755701310703       10.74984553766269
H            6.79591553917454       -4.48613797706585       10.89132812944033
H            9.03576977658330       -0.44603027343938       14.01386687209659
H           10.11120269424512       -0.77728635115807       16.20247739969737
H           11.17859707097149       -4.27574066613745       18.88327817834649
H           11.26204890303396       -4.90257240256429       17.22573234946938
H            9.68417031628657       -4.76988001932062       18.06455477356698
H            9.50280326497036       -4.98178399828136       15.85115620391841
H            8.43906024343459       -4.64482370401210       13.68040760170635
H            7.96831678468241        0.28228733823002       11.18935665148198
H            8.54759147792849        2.66669142909010       11.34517839754581
H            8.54246414281462        4.90060028963232       10.35827238620512
H            7.55146505578649        5.28219571891798        8.13222444214713
H            6.56084489455957        3.43121303156031        6.88421411896753
H            5.98256338123068        1.04769902418135        6.73785458253321
H            5.88830632843034        0.40840216313248        3.26618346279263
H            4.92337271163721        0.90956034658599        1.05825747660017
