62
 energy: -13.436826957857 gnorm: 0.000588012607 xtb: 6.5.0 (97a52f5)
C            1.33269927938993       -0.14908512338463        0.61151119399433
O            2.63347512701988        0.12445266341622        0.14060574387376
C            3.08206026447454        1.42278028322901        0.38393253185504
C            2.33505459693563        2.41573904346713        1.03108993833435
C            2.85366463349959        3.67072044151486        1.23143189862788
C            4.13893293626975        3.99620296076115        0.79803860102341
C            4.65946430643998        5.27780618529475        1.00135840043461
C            5.10756354304551        6.40756738644879        1.17511868907628
C            5.60316890912985        7.69232668485707        1.36012945029255
C            6.92905923682947        7.89056576016352        1.80534579533600
C            7.78478136828267        6.79509375883652        2.08076264358048
C            9.06437574246048        6.98612096359419        2.50285326338485
C            9.56707286916432        8.28180237802334        2.67468895385916
C            8.78052840706151        9.36330751035031        2.42252604629072
C            7.44171763265945        9.21338546641021        1.98313827882325
C            6.62638703234935       10.33621583125197        1.71965341374236
C            7.12644735652569       11.62281185668243        1.87725943451852
C            7.54961393559732       12.76986038968479        1.98916185335657
C            8.01683791077696       14.08384078255076        2.08767462801928
C            7.12585839746569       15.15274578844206        2.17962494867533
C            7.58341691751881       16.44284954005243        2.26771091950446
C            8.95458769074945       16.72914529854043        2.26822103117189
O            9.33667325702529       18.06758262218097        2.35981526505100
C           10.72995694963586       18.28538550271658        2.36169142957933
C            9.84485924166909       15.65123038974789        2.17620168846838
C            9.38375095539042       14.36140498223955        2.08813169860296
C            5.28752285720962       10.14643830854572        1.27887047459827
C            4.45267375888934       11.23471555761432        1.01464515831632
C            3.14250942315460       11.06815795514466        0.57388628314884
C            2.29294880787871       12.17247460030569        0.29987907931445
C            1.02066217580290       11.97719240131542       -0.13475742663094
C            0.51953498070493       10.67572126675505       -0.32223465647433
C            1.29853439297762        9.59138174560847       -0.07067057226383
C            2.63399754242683        9.74866823132123        0.38567488283277
C            3.45865236502535        8.65850792789393        0.65141568520312
C            4.77390957061848        8.81712950840861        1.09451248621244
C            4.88705446632820        3.01171063345572        0.15312255587223
C            4.37153712116168        1.75675997050736       -0.04938386980703
H            1.08519295433895       -1.18443245768514        0.37341220760621
H            0.61214461894810        0.50653541869298        0.12055690883108
H            1.29194965589650       -0.01724226398471        1.69365797796499
H            1.34105449771955        2.19617440419439        1.37542197722981
H            2.26899775152165        4.42548729127025        1.72926587351999
H            7.40544120512401        5.79686008471677        1.95016985013142
H            9.69766961352024        6.13808200524981        2.70576935400249
H           10.58332462529799        8.41973563312766        3.00576780976545
H            9.17324559342787       10.35611543218807        2.55493742908109
H            6.06852002896998       14.94981662398169        2.17942396646012
H            6.89238155069881       17.26400757978383        2.33803083184265
H           10.91609767080073       19.35685043189215        2.44647366396596
H           11.16525904946546       17.92495260088856        1.42857680686799
H           11.18602711483367       17.78092678818797        3.21467581954157
H           10.90394134950864       15.83318782918853        2.17239231686885
H           10.07812567548893       13.54175465308378        2.01496566719538
H            4.83095328782713       12.23055768638126        1.15307479026595
H            2.67364831647299       13.16922192784571        0.44101375117470
H            0.38655159730019       12.82388184764430       -0.34048669286618
H           -0.49160397972346       10.54270014019563       -0.67035787072541
H            0.91260314498897        8.59737233156556       -0.21668465903877
H            3.07010528936279        7.66710657545524        0.50954682584414
H            5.87972595411511        3.25203318310309       -0.18745193869934
H            4.95206747449071        1.00086679939010       -0.54773048666833
