62
 energy: -12.871457819934 gnorm: 0.000596270265 xtb: 6.5.0 (97a52f5)
C            1.65812700200509       -0.12716445154442       -0.54920091367185
O            2.92803792412344        0.07465343707778        0.02954693610639
C            3.40915256063896       -1.00239919305109        0.77408235759854
C            2.72267820976461       -2.20823780707758        0.96740366236937
C            3.26848554256238       -3.21702088543499        1.72145869383724
C            4.52168385880230       -3.07416966684631        2.31728437745858
C            5.06922343115672       -4.10156023470893        3.09145103208163
C            5.53973195003073       -5.00153862549614        3.78137304069696
C            6.05484958649552       -6.02052987311477        4.57293320313501
C            7.02326907609888       -5.73721743777306        5.56183411128332
C            7.50259721831803       -4.41933410763313        5.76562204283387
C            8.43623295639547       -4.14556069152046        6.71709415297701
C            8.94662104319244       -5.17068205080690        7.52321194516929
C            8.51437339944459       -6.45112218797613        7.36313907451208
C            7.54500554710828       -6.78384018518122        6.38472555511383
C            7.09790714400235       -8.11301162155387        6.21711874559487
C            7.59971530745332       -9.13559953145626        7.01250419896288
C            8.02213548724000      -10.06337269241761        7.69670459871046
C            8.48740454544608      -11.14323218983033        8.45299847604902
C            9.45782108922086      -10.96795531671281        9.43904888226083
C            9.91380835520662      -12.03341732421691       10.17297162549665
C            9.42236525688213      -13.32751673400308        9.95825506248582
O            9.94034580170325      -14.35550963387050       10.74609441984759
C            9.39658999890181      -15.63056611435275       10.48680396028719
C            8.44673735728990      -13.49745662657629        8.96742859989224
C            7.99267025040743      -12.42920119592260        8.23500325378318
C            6.12597929305813       -8.40652292357717        5.22148882902118
C            5.65763196526928       -9.71027741625346        5.02213226352125
C            4.71411169102622      -10.01083946077161        4.05671904949727
S            4.25411461689414      -11.62664603450784        3.94253410284680
C            3.19474943956623      -12.23597515535044        2.91846967233628
C            2.89761903615045      -13.53201484852249        2.90290204677594
C            3.24889584362021       -9.23763030364206        2.25689974369632
C            4.18746101119737       -8.98297108459375        3.22792702428493
C            4.65038578341581       -7.67876241005061        3.42376283430972
C            5.60252669293195       -7.35703979833365        4.39420294079402
C            5.21086306211089       -1.87713810599571        2.12529415364827
C            4.66847321638142       -0.86705097668341        1.37229730774096
H            1.38045221725659        0.77026799976803       -1.10367887783479
H            0.91574577957891       -0.30228154417064        0.23073085509450
H            1.69291771644424       -0.97105907920077       -1.23962448078570
H            1.75505671063844       -2.34820317253438        0.52140813483366
H            2.72964445222848       -4.13819560417214        1.86444989247752
H            7.11479321322512       -3.62698385005762        5.14981649357288
H            8.78728222432911       -3.13587049337424        6.85381041881088
H            9.68555236407005       -4.94037643006817        8.27310916646609
H            8.91032715195994       -7.23375266195317        7.98617127522177
H            9.84711413233634       -9.97997243904267        9.61630184405499
H           10.66317081237890      -11.89404209501484       10.93181035052394
H            9.86101613605252      -16.35186513066430       11.16056056053011
H            9.60749941161033      -15.92394940864433        9.45745663807013
H            8.32095111949507      -15.62205279076554       10.66844430814341
H            8.04728189429252      -14.47626702754483        8.77470376712678
H            7.24307553636082      -12.57336145321990        7.47554872380166
H            6.04195652115274      -10.50729336983455        5.63588561717258
H            3.20260950244375      -19.36876882233278        0.07853725047105
H            4.29256078464449      -10.73331357192558       -3.32354230405471
H            2.20534201171051      -13.95399349267305        2.23055957643313
H            2.84531715140284       -8.49769103390254        1.63238972682551
H            4.25796732110979       -6.89415143886277        2.80320271607638
H            6.17953270636345       -1.75598480116064        2.57927618052109
H            5.20301157640694        0.05496317114734        1.22775110337060
