40
 energy: -8.378038873860 gnorm: 0.000517314796 xtb: 6.5.0 (97a52f5)
C            0.76649437910505       -0.27379672789820       -0.37233098556436
C            2.18579187303560       -0.60465325877840       -0.05619911101558
O            2.45221682338768       -1.08688619091775        1.02190766401463
N            3.14868501545906       -0.34554554765650       -1.02721544827065
C            4.52154280256879       -0.59672004919880       -0.92307847394211
C            5.37594374979676       -0.28986873610331       -1.98355476189391
C            6.72206643765550       -0.53571525473138       -1.89126563385298
C            7.27191155657596       -1.09815167725224       -0.74199582761402
C            8.70881175750167       -1.34188525882112       -0.69438509132149
C            9.40481728682698       -1.91691471201487        0.33988994747805
C           10.76622195232427       -1.95775214058173       -0.02734615600348
C           11.86724375819966       -2.40280692642691        0.65798607414966
C           11.89296570281577       -3.11769199003215        1.90734847234590
C           13.06418745707119       -3.12104336876949        2.67875596820759
C           13.12483415265587       -3.80461842379551        3.86657490958814
C           12.03000407127080       -4.51770955433850        4.32080192630015
N           12.09649274036096       -5.23999421777504        5.58848152679800
O           13.13198486802179       -5.16100163142140        6.26335310230524
O           11.11473066980515       -5.90584283600167        5.94514118165838
C           10.87318708990758       -4.54718604939711        3.56296604357087
C           10.80262892319644       -3.86495718946823        2.37468103870494
C           10.82897646287900       -1.33684502693367       -1.36311422548225
O           11.85727402559212       -1.17939385435234       -1.99240882918974
O            9.55285017520503       -0.99423556020904       -1.73284296657589
C            6.42089197194728       -1.40516538550286        0.31987710750477
C            5.07593107546273       -1.15735889866607        0.22626935809626
H            0.35768231849512        0.38919071332387        0.38894623765627
H            0.16334660713705       -1.18060702367889       -0.38725221377578
H            0.67111217211927        0.21716687826185       -1.33965449747733
H            2.83059611607073        0.05661717408097       -1.90145669155938
H            4.96594662143132        0.14367855935696       -2.87892347970409
H            7.38079977603349       -0.29817507586645       -2.70978166711367
H            8.99083069238437       -2.20937254842730        1.28573335576840
H           12.82081280016245       -2.18478642694988        0.20700148074956
H           13.91959905310217       -2.56533835594038        2.33424660881840
H           14.02172400564239       -3.79703005199089        4.46323695604636
H           10.03599702009450       -5.12370053540172        3.91977265318019
H            9.92197875967024       -3.95498575122237        1.76537744928887
H            6.82407777359651       -1.83862393275602        1.21792559928634
H            4.41914950542221       -1.39392315574175        1.04421139884909
