92
 energy: -19.601520607473 gnorm: 0.000847797524 xtb: 6.5.0 (97a52f5)
C            1.54933881919009       -1.22342698670079       -0.81207761322639
O            2.77695904362884       -0.65324240120155       -0.41934555639867
C            3.34265992534788       -1.21200297653077        0.73090270562302
C            2.77713584423675       -2.25728545665533        1.46835444990692
C            3.40230549939368       -2.74720853979948        2.58933002933460
C            4.61523215098339       -2.21971009526476        3.02449438257285
C            5.25034588748364       -2.73875273799102        4.16713105296790
C            5.78372281780139       -3.23585190524839        5.14784299921965
C            6.36930332493281       -3.88707408598540        6.25023768466399
C            7.03909534258919       -3.15717502937295        7.22120077192714
C            7.62668272600938       -3.76721320091704        8.31975866205046
C            8.30186939331501       -2.99470922000488        9.28399831415657
C            8.91212076322339       -2.39526914102290       10.15678114528085
C            9.62998645697379       -1.76124640171968       11.18678376046108
C            9.23181104581854       -0.52345747819283       11.68339834390891
C            9.93311978116091        0.08615754454958       12.69426820963306
C           11.06430060408204       -0.51410887233689       13.25642177722747
O           11.72000897819470        0.17441872223369       14.28166175472322
C           12.85490147081771       -0.47955331045744       14.80227667560201
C           11.45923938605618       -1.75823378593828       12.75396135645735
C           10.75596586738772       -2.36413277651653       11.74122451250913
C            7.54026276571319       -5.16317145283640        8.45896690126725
C            8.12302758651906       -5.80091438877006        9.56799340067724
C            8.61480858364421       -6.36946315521404       10.53190829622603
C            9.16568139834595       -7.04791426174555       11.63155628360894
C            9.85232405460988       -6.36074263753252       12.62834444379572
C           10.38675477731064       -7.02952814104533       13.70131245992536
C           10.25813490683432       -8.41667207960664       13.82769383471654
O           10.83231808618469       -9.02018096367991       14.95043033761559
C           10.68112978116384      -10.42023491713914       15.01198661386072
C            9.56531554493700       -9.10137786820288       12.82345414982208
C            9.03256382894225       -8.42886487160083       11.75072166872919
C            6.86672476476985       -5.92047572076116        7.48688147418983
C            6.77493111067014       -7.31887965547240        7.62089650776716
C            6.68491400629214       -8.53275036909466        7.72940813149511
C            6.57344170986774       -9.92925197820209        7.84218676721542
C            7.64741208689453      -10.70026467698509        8.27746587890098
C            7.53558123599055      -12.06462469061580        8.38212025629129
C            6.34512585322764      -12.72168988937546        8.05457677503779
O            6.31734574292753      -14.11365995950688        8.18267973439045
C            5.08868978742682      -14.71509478279762        7.84261818047768
C            5.26845070774718      -11.94124286672436        7.62059563072641
C            5.38375993316610      -10.57616101725309        7.51853379308936
C            6.28213692635208       -5.28390223309017        6.37984936942612
C            5.61825070724467       -6.04676918513210        5.40325431345556
C            5.06309052615316       -6.73573742037910        4.55989308517926
C            4.44397393505865       -7.54865661138661        3.59619210290312
C            4.40712250452579       -8.93124975554617        3.75370347592663
C            3.81212813507171       -9.72956276071135        2.80889789418579
C            3.22738133533401       -9.18219575952254        1.66214282674111
O            2.64791478203147      -10.06617208677583        0.74706642164164
C            2.08547199137741       -9.45502958548539       -0.39174002159096
C            3.26565137055491       -7.79186164575133        1.51070816297990
C            3.86156746990566       -6.99604754886566        2.45868178672337
C            5.18223946763016       -1.17849685826389        2.29534705969827
C            4.56022555816581       -0.68615471227279        1.17457658463875
H            1.20331714967603       -0.71719708846410       -1.71426325383195
H            0.80712944858408       -1.08697126658717       -0.02429211240386
H            1.68410340101598       -2.28337826356776       -1.03202916649306
H            1.84115078085341       -2.68418828536781        1.15788069211420
H            2.95632766425810       -3.55079462827768        3.15027552805960
H            7.10562538517009       -2.08868269879467        7.11883984309496
H            8.36184363980249       -0.04887506224245       11.26267298172683
H            9.62330979125021        1.04309439829998       13.07508819508064
H           13.28731310372671        0.14495681186732       15.58517935319647
H           13.59677097181812       -0.62208753747494       14.01526987068082
H           12.56662467996335       -1.43861516734020       15.23487184545066
H           12.32328567970923       -2.24925165538572       13.16271256781689
H           11.07204391439612       -3.31954145546483       11.35850168322931
H            9.95768625454444       -5.29266768424736       12.54580771204599
H           10.91838465748278       -6.49600699332750       14.46909553965117
H           11.17378896784007      -10.78380215978799       15.91477332323536
H           11.15005093746161      -10.88460357487713       14.14333328205154
H            9.62239772795184      -10.67888214310238       15.05929965002895
H            9.44459248873755      -10.16708777481008       12.88972524667634
H            8.50035482023055       -8.96474759087421       10.98328354015544
H            8.57237121087060      -10.20985650706594        8.52854564736450
H            8.36813429795187      -12.65762312970846        8.71677662901542
H            5.17840637282324      -15.79305671306902        7.98367070077299
H            4.85246059812177      -14.51456651996346        6.79663001158727
H            4.29704231817302      -14.33948619706928        8.49242866484299
H            4.33733255731061      -12.41204830656770        7.36346300348747
H            4.54694677016941       -9.98497471210582        7.18749686315908
H            4.85624774600822       -9.36658754453375        4.62992943938425
H            3.78688167041172      -10.79763481215443        2.93278647511539
H            1.66757948261940      -10.23247257285609       -1.03274552716512
H            2.85693122050455       -8.91815333376465       -0.94556582689174
H            1.28545695354834       -8.77593224435684       -0.09371546735742
H            2.82586327667717       -7.33715530996943        0.64206816594899
H            3.88836998392256       -5.92732085229214        2.33117885559710
H            6.11960740433877       -0.76272776257613        2.62326623616673
H            5.00050858410068        0.11937098477011        0.61417980531661
