33
 energy: -7.050114830551 gnorm: 0.000462695795 xtb: 6.5.0 (97a52f5)
C            1.27450993951089        0.35918795744552        0.04910665023202
O            2.55314452666042       -0.22342476309071       -0.05428697925882
C            3.03679756254002       -0.35601213614069       -1.35798423396119
C            2.37978291617054        0.10599741749279       -2.50256371123906
C            2.92599944349730       -0.07592360753827       -3.74949173483912
C            4.14697557744074       -0.72426882110322       -3.91166283850194
C            4.68756872680108       -0.92708960000179       -5.19287314759269
C            5.13056201118935       -1.13670272437229       -6.31263090736219
C            5.60429442960539       -1.42657245713893       -7.59767749455982
C            6.00578137568608       -0.44482125666234       -8.43113036830178
C            6.47085680803005       -0.73941708812266       -9.74063604632696
C            6.89107470965453        0.25753969861621      -10.62879982039236
C            7.32666348119209       -0.06709553840594      -11.88658134610671
C            7.35515719767559       -1.39495363197423      -12.29333051518697
C            6.94998683632432       -2.38638835894201      -11.44084054376239
C            6.50051289334625       -2.08574825450863      -10.14979420317446
O            6.09934882458481       -3.11712631257034       -9.31658172919587
C            5.65097167831694       -2.82595120283230       -8.04388458219234
O            5.28853208759317       -3.70451153925104       -7.27379847624339
C            4.80791392741934       -1.18118303899049       -2.77557355057041
C            4.26608586643328       -1.00011332219398       -1.52759983402597
H            0.98946268612392        0.37791047897787        1.10227311923819
H            0.54892016646324       -0.23923463677891       -0.50436526400426
H            1.30130838650428        1.38260898259873       -0.32845271182830
H            1.43541726675552        0.61017302885747       -2.40943421091743
H            2.40914779118860        0.28099630288888       -4.62410162664842
H            5.96972787576800        0.57844260154996       -8.10299050756790
H            6.86715411044205        1.28571393753710      -10.31143059196261
H            7.64751884739760        0.70787781566416      -12.56299364946591
H            7.69807779335598       -1.64447223221952      -13.28407972910163
H            6.96823362526602       -3.41749247867140      -11.74649560521569
H            5.75191918880323       -1.68612956696264       -2.88991565274740
H            4.77691144224513       -1.35757565313216       -0.65109815721984
