33
 energy: -6.909904792430 gnorm: 0.000778307640 xtb: 6.5.0 (97a52f5)
C            1.37756957476466        0.58967532080432       -0.35764824130959
O            2.49427482777755       -0.19458328495446       -0.00182619556840
C            2.92764850376740       -1.10238203523143       -0.97247831698464
C            2.31182493191624       -1.23787351019512       -2.21241189228822
C            2.76377387732037       -2.14303370313646       -3.14813307696318
C            3.85641230891335       -2.95285028194399       -2.88197124637903
C            4.31836275881991       -3.88271840858377       -3.83158724488587
C            4.71052338251884       -4.69872603034062       -4.65189721281560
C            5.15443719709232       -5.65245165880837       -5.58795264544477
C            5.58527972678219       -5.26571913423759       -6.85271715449356
C            6.01333141282444       -6.20100730938892       -7.76732148508093
C            6.02426844540711       -7.55337130819915       -7.44675642296118
C            6.45756032004804       -8.50758124952130       -8.38065573930736
N            6.81244944817080       -9.29822756662609       -9.15358007255711
C            5.59508808747876       -7.94200733740304       -6.18306041919487
C            5.16732776349271       -7.00633268323862       -5.26855035041718
C            4.48303499400564       -2.82708277374128       -1.64738189629905
C            4.05131471957187       -1.92877213760254       -0.68324487528166
O            4.78028425881662       -1.91797944448037        0.51859402486376
C            4.30702972942902       -1.05037114012397        1.51489972100496
H            1.13766586660651        1.24755262454540        0.47867447575918
H            0.52036200187327       -0.05527884521561       -0.55563364967303
H            1.61550757690061        1.19977480774793       -1.22991067045543
H            1.46340697895320       -0.62462909291440       -2.45448407736801
H            2.26942245756882       -2.23172136806184       -4.10049076128073
H            5.57866673039827       -4.21990304581382       -7.10870238556457
H            6.34507675483948       -5.89378534818321       -8.74452404384510
H            5.60069092731635       -8.98816968631329       -5.92861923387070
H            4.83473642288952       -7.31451458452731       -4.29194758014097
H            5.33100735649772       -3.44722619135635       -1.42199938141891
H            4.93232622395895       -1.15358252620741        2.40282045759188
H            3.27543576101985       -1.30989993747466        1.75836899699261
H            4.35415867223928       -0.02353112931057        1.14866859562194
