38
 energy: -8.270466274079 gnorm: 0.000744125355 xtb: 6.5.0 (97a52f5)
C            0.91004179961258        0.74549564455255       -0.34110304535077
C            2.36689505696886        1.02675014901828       -0.49098836294139
O            2.74519413063607        1.69639282827464       -1.42602037928822
N            3.23508330337884        0.48728667823557        0.45344074466427
C            4.62883088361853        0.61155114299971        0.46701813704277
C            5.37935718271786       -0.00321343369157        1.47234726375824
C            6.74606326206567        0.10262815276000        1.49000249513308
C            7.41645049703282        0.82729077420167        0.50616921485100
C            8.86459262734024        0.94078865840392        0.51520875874916
N            9.62720207553398        0.36849346093365        1.41945801758259
C           10.90906992262206        0.69240535318091        1.10598251196160
C           12.05250154188088        0.32719283396524        1.75789461347496
C           12.11062237759194       -0.49872541274519        2.92710945739721
C           13.34323068699193       -0.80330807596446        3.51734511126657
C           13.41108849191752       -1.59570253604791        4.63590140545505
C           12.25626241517871       -2.11742969615616        5.21239818521230
C           12.33062713735066       -2.92634150219133        6.35288201504290
N           12.39153722432475       -3.59840661769140        7.29827663092807
C           11.02698653417738       -1.81949024305937        4.63194020125101
C           10.95762798605934       -1.02787021674776        3.51488390875674
C           10.87279262251274        1.53993096634009       -0.10414552405515
O           11.85051087983729        2.00654623295682       -0.65527693726142
O            9.55670512085613        1.66231304266492       -0.43250480744373
C            6.67248092398523        1.44496969133406       -0.49603318038007
C            5.30681113654357        1.33679602630783       -0.51239823872058
H            0.58258851149385        0.03543198062493       -1.09924003537848
H            0.33731472018592        1.66275236723227       -0.47077075572284
H            0.67686126885328        0.33376565682254        0.63974285481459
H            2.82552944447108       -0.06694182035290        1.19651663332656
H            4.87131423705572       -0.56491481208677        2.23675343964230
H            7.32100296059297       -0.37321683754552        2.26554896230074
H           12.98175104108012        0.68939521387945        1.35561014285008
H           14.24553403131530       -0.40812181864419        3.08286226500566
H           14.36416998250814       -1.82501513854258        5.08229236873541
H           10.13007344736896       -2.22101156337818        5.07286457392380
H           10.00455085369208       -0.80429148210262        3.07407774733825
H            7.19183935416900        2.00443865385699       -1.25592887533798
H            4.73074432647142        1.80997569841675       -1.28738751858670
