55
 energy: -12.002242024549 gnorm: 0.000493168687 xtb: 6.5.0 (97a52f5)
C            1.26464106411198       -0.46731740130838       -0.08810269593898
O            2.56260165187271       -0.01667653821460        0.22358684202803
C            3.11469861443349       -0.56760438113440        1.38454187314595
C            2.48416615305896       -1.51782346438399        2.19328808409819
C            3.10018686502440       -2.00254592665999        3.32197382055740
C            4.36828823970387       -1.56395302037463        3.69347544916999
C            4.99179296301365       -2.05520356162413        4.85440740084786
C            5.52691327333965       -2.46909043128530        5.87272636572139
C            6.12688543628123       -2.92689947098829        7.05781593174173
C            6.74444194064851       -2.03146510748950        7.94142897735402
C            7.31389536206012       -2.47057491048328        9.10399214136078
C            7.29988148707058       -3.83212197383214        9.45674113859728
N            7.86634683448538       -4.21364859805479       10.63088512563303
C            7.82888115343171       -5.50556897670771       10.93447497346907
C            8.40456800682835       -5.93557792753223       12.15317041083808
C            8.39109604398003       -7.24363750956852       12.51261149174714
C            7.80098745167292       -8.22033902379490       11.67716020796163
C            7.78556229579579       -9.57543368145374       12.04983673473053
C            7.77581019404667      -10.75277648231962       12.37818324697883
C            7.77090931064346      -12.10632186326755       12.76128508199401
C            8.96411311377128      -12.79793945756931       12.94813398962039
C            8.95964916073115      -14.11919987740157       13.32198721755647
C            7.76185731297313      -14.80998956426686       13.52643735486311
O            7.84811750243702      -16.15386438213520       13.90445570516937
C            6.60942035381404      -16.79962538683955       14.08725560093798
C            6.56603059545877      -14.11051688687255       13.33887168619589
C            6.57438772752730      -12.78826692612710       12.96461591935795
C            7.24673610253121       -7.80555637480199       10.49928702115349
N            7.25163679680776       -6.48630828026994       10.12418241740700
C            6.65561700331530       -6.14136218453590        8.89672629057384
O            6.14593086305546       -6.97518616107422        8.16370777090917
C            6.68500244264385       -4.73403811875404        8.56332696195371
C            6.11209650494621       -4.27041924643703        7.38672123791737
C            5.00133616086712       -0.62019841732319        2.88988742039165
C            4.38895531385634       -0.13381587401958        1.76124339252318
H            0.93132163809275        0.04035184811693       -0.99451988706305
H            0.58075492002088       -0.22231187234442        0.72582455531953
H            1.27802543860029       -1.54305472222904       -0.26868324297421
H            1.50535595109790       -1.87581350968774        1.93182642382904
H            2.60367334634985       -2.73248061179477        3.93845198213244
H            6.76075450062985       -0.98477178478791        7.69040396876419
H            7.78358945439638       -1.77524405377401        9.77710870805021
H            8.85431659862193       -5.19681930595821       12.79265964976035
H            8.83044427292620       -7.55821102843645       13.44371401117608
H            9.89550049208443      -12.28005946122794       12.79486997512795
H            9.88352798982030      -14.65092612287796       13.46495052267431
H            6.79865768356850      -17.83539410364241       14.37263165663017
H            6.04289670115461      -16.78711817224863       13.15501881419434
H            6.04902256695015      -16.30955501001885       14.88474158580111
H            5.62653371215171      -14.60994863819100       13.48875998010283
H            5.64691230926822      -12.25984187221069       12.82341061101324
H            6.78799004641170       -8.51529262338509        9.83454781027930
H            5.64430033412102       -4.97568064591990        6.72343738007347
H            5.98208507405350       -0.27371647653080        3.16773817146207
H            4.88036567344556        0.59620555606034        1.14300473509844
