44
 energy: -9.259602499450 gnorm: 0.000477250436 xtb: 6.5.0 (97a52f5)
C            1.26778719403226        0.28526333516827        0.41556012781628
O            2.49483192294825       -0.06585819867382       -0.18294112859445
C            3.05908977608958        0.92681653898851       -0.99068677413453
C            2.48255928267270        2.17779991582606       -1.23258257926123
C            3.10673693881136        3.09794250888126       -2.04011812877821
C            4.33000707122129        2.81386713857566       -2.64142785241681
C            4.96547293146591        3.75734995351187       -3.47031359116699
C            5.51859178682344        4.57173632117632       -4.19421878234634
C            6.16884804333592        5.49647276393298       -5.03611199382143
C            5.42297082415981        6.45323850474065       -5.71735100470838
C            6.03062512798877        7.36649770877463       -6.55016331920536
C            7.39999476513129        7.34103059809811       -6.71894468863471
C            8.15769508393491        6.40308433756900       -6.05332765430436
C            7.56470869222643        5.47194773267914       -5.20639525560541
C            8.36664074542609        4.52643598381607       -4.53576608698642
C            9.05290619593688        3.70601664580719       -3.94482241771032
C            9.84376369074720        2.76241757326446       -3.26272598853264
C            9.34119125373603        1.50266702721574       -2.94989590522648
C           10.11416527496994        0.58182077058650       -2.28654828875683
C           11.42678609434162        0.87753044430036       -1.90522250867901
O           12.14752556834068       -0.11680954552135       -1.23573159295909
C           13.46508359367389        0.24215961139494       -0.88493330713782
C           11.92623401607941        2.14528602373091       -2.22070972191717
C           11.14933393936602        3.06422712590640       -2.88416499913682
C            4.90793660428580        1.57010191204578       -2.40444561441946
C            4.28719709062925        0.64773653648491       -1.59862710286098
H            0.92266470413866       -0.55308311568650        1.02210409465238
H            0.52329706392130        0.49235141444392       -0.35421833170337
H            1.40252107323705        1.15506813886221        1.05981678699476
H            1.53855215875938        2.42591395193214       -0.78324752971895
H            2.65230231449898        4.05736075116498       -2.21918304171063
H            4.35476235918879        6.47009317864331       -5.58363349476118
H            5.43703503660550        8.10034957631289       -7.07022586397406
H            7.87623537745238        8.05447836435345       -7.37129130238735
H            9.22639210830476        6.38060244402051       -6.18231552821675
H            8.33353296357854        1.25861283342876       -3.23869931768263
H            9.72172158939233       -0.39060166259227       -2.04759905365514
H           13.93265497419970       -0.60140042232850       -0.37535658634529
H           13.45113850249082        1.09821289045512       -0.20892854096237
H           14.04021781410098        0.47400840372526       -1.78243311777200
H           12.93039653949448        2.40770603173001       -1.94216986125080
H           11.54556842877891        4.03682348612431       -3.12159172595696
H            5.85272302730680        1.33986873861823       -2.86546977912171
H            4.73737045608627       -0.31234427113915       -1.41941164683629
