49
 energy: -10.553929935220 gnorm: 0.000424049931 xtb: 6.5.0 (97a52f5)
C            0.82545334850917       -0.45224875352102       -0.21441209530471
O            2.20504367241057       -0.23471263266302       -0.40753569752300
C            2.63218779921884        1.07482460843160       -0.16597005407440
C            1.79558677616974        2.12519930594745        0.22650138516250
C            2.29851134871648        3.38595260405934        0.43996412752617
C            3.65397933442701        3.65409694904727        0.27362525447054
C            4.18173772192348        4.93969515216189        0.48406306552413
C            4.73842353448395        6.01892364275676        0.62805871215650
C            5.48061823854879        7.21078701864059        0.73232939457287
N            4.90820565679234        8.27217718063024        1.24891524559221
C            5.68064795544733        9.38097752673159        1.26437958089140
C            5.15983322261993       10.57563636101493        1.80148134678672
C            5.89725782048038       11.72288605132823        1.82627372023098
C            7.19379589556344       11.73299623100386        1.31344476158850
C            7.73035167906029       10.59580529872491        0.78578387642401
C            6.99858696766313        9.39060461563265        0.74428073561761
N            7.57384397172828        8.28911892894392        0.22004923622425
C            6.82003947842933        7.21013304401381        0.23565921234414
C            7.39465021358228        5.95683903323467       -0.30175058496795
C            7.88453865076574        5.76458743823908       -1.57882838900207
N            8.29495249328086        4.46113977440969       -1.72189646104487
C            8.84767260776314        3.85820357065117       -2.93092857142092
C            8.08898538062045        3.78707173729647       -0.51594737004206
C            8.33547974590354        2.46696192956300       -0.12464587866419
C            8.03451084529652        2.09693677420894        1.15969959549765
C            7.49395603259331        3.01603010562375        2.07097555947517
C            7.24585895531306        4.31163499759982        1.70399649026839
C            7.53775608944484        4.70727958798267        0.39061610399942
C            4.49126238531941        2.61219496409808       -0.11342373661003
C            3.99314774466903        1.35209079418486       -0.32896376866343
H            0.60463797892617       -1.49858590243741       -0.42956851188369
H            0.24922330879542        0.17640039401570       -0.89494574195529
H            0.55684513013706       -0.24090323580135        0.82174960644009
H            0.74474448211260        1.94731853787271        0.36422884885691
H            1.64489053049395        4.18728458251317        0.73973491461066
H            4.15798548631979       10.56300498246786        2.19330419634953
H            5.47869900860359       12.62500873027578        2.24130916185703
H            7.77113767932273       12.64265993030446        1.33560987360899
H            8.73055744877701       10.59721520510453        0.38962850127897
H            7.92014900053596        6.50745443466902       -2.35631792753991
H            8.91574863871322        4.59928321592043       -3.72467816985374
H            8.20792030512871        3.04406286273643       -3.26532397622188
H            9.84298471348208        3.46727067545560       -2.73019678569236
H            8.75391400656198        1.76899248817250       -0.82754455620270
H            8.21647495438182        1.08356582562694        1.47749320699621
H            7.26901946768984        2.69532793960166        3.07471968600365
H            6.83057845643495        5.02265016285339        2.39586435770491
H            5.54226783854543        2.80989386156433       -0.23301795382321
H            4.64400598036649        0.54979147560921       -0.62800352210504
