60
 energy: -11.554643871622 gnorm: 0.001434167084 xtb: 6.5.0 (97a52f5)
C            1.06200800269373        0.06494031177580       -0.02430873705212
O            2.46779205769683        0.04340147104641       -0.10949519510638
C            3.03727756556413       -1.22686664520044       -0.14625004494763
C            4.43556684656675       -1.30342904328104       -0.19021533228804
C            5.07557348996511       -2.51087647039941       -0.21752913940354
C            4.35365801154588       -3.70813009620104       -0.19077905186905
C            5.07783004673672       -4.99931128563992       -0.20487642546817
C            6.07509798097928       -5.22083991602098        0.75226428112078
C            7.18368228757776       -6.17527352723664        0.51492272142506
C            7.51951828393026       -7.14228688201839        1.46358904350065
C            8.56002215758201       -8.01395748394352        1.23606248218267
C            9.29144855853668       -7.93126881275991        0.06740135633245
C            8.98829919279966       -6.96495411709917       -0.87163974146119
C            7.94971786574295       -6.09103871311618       -0.64870344689576
C            6.12637429197798       -4.40031547318429        1.99292740961751
C            7.24622185951423       -3.57717034151542        2.20458505579043
C            7.54643735663028       -2.86789086154628        3.34299980621722
C            6.79725093582455       -2.87636590675895        4.47059334092128
C            7.06364814994986       -2.20879576074404        5.66869471535057
C            6.21852065867341       -2.16356748618541        6.67324309593190
C            4.97752987482478       -2.69409741127545        6.79017889417941
C            3.90054347294399       -3.15293590800577        6.88302264093408
N            3.10452803549138       -9.45381978338799        3.00245481491005
C            8.04654096527201       -3.08205495985049       -0.57230307119389
N           -4.15402757566810       -1.15038819605883       10.18853607441150
C            5.10117622482874       -4.46025683682608        2.87852350464896
C            4.80065487315951       -5.95167874977400       -1.28821669380103
C            5.03041779507597       -7.32432008794303       -1.14807805078981
C            4.75836467553375       -8.19575805147353       -2.16851839074084
C            4.23610287183581       -7.74728240336951       -3.38799336521082
O            3.99689330419218       -8.69993951889580       -4.37479020257425
C            3.47129436764515       -8.19187245568271       -5.57910940030201
C            3.99302347586025       -6.37486174709556       -3.52570783721376
C            4.26605957740479       -5.50608198410175       -2.50192248576555
C            2.95751185491774       -3.63800010411670       -0.17072162878430
C            2.31438809622983       -2.42807091901534       -0.14559352549939
H            0.73813477560926        1.10570939725138        0.02530867671653
H            0.73779365075446       -0.45134659983901        0.88074265092309
H            0.63059096950777       -0.39887973705495       -0.91278100925155
H            4.99641560508832       -0.38580797231214       -0.20749692653188
H            6.15181426883281       -2.56956786082805       -0.30242537321672
H            6.95144633964287       -7.19906240841848        2.37586329410856
H            8.80728973348180       -8.76020920334684        1.97336399260815
H           10.10770232999733       -8.61309069112495       -0.10668190346069
H            9.57448749610517       -6.88390416564915       -1.77212884059725
H            7.74866491632614       -5.28709432878409       -1.33745057887833
H            7.88973566856778       -3.45078531047975        1.34589045035802
H            8.43911579327348       -2.26328730941037        3.34630661834456
H            8.01026597988710       -1.70526932600915        5.77055807422397
H            9.66004446799446       -2.59866116235545       -1.45154757412379
H            4.25700949456110       -5.06679621075569        2.73871405443828
H            5.42195854195585       -7.69714777187809       -0.21876704863763
H            4.94295893967023       -9.24913862477209       -2.05323139798216
H            3.33285000473680       -9.02425450071840       -6.27075838867616
H            4.17118234272712       -7.47881040626690       -6.01723287358986
H            2.50481608442010       -7.72174296102766       -5.39187001085307
H            3.58717415804565       -5.99459903260504       -4.44506957987206
H            4.07919956219979       -4.45405647926125       -2.62938899943638
H            2.39202661995841       -4.55380969805114       -0.16288106133365
H            1.24041476178810       -2.40402147509349       -0.12555371704655
