68
 energy: -13.329143852189 gnorm: 0.000548245389 xtb: 6.5.0 (97a52f5)
C            0.88286208301962        0.43955770948743       -0.07680788953009
C            2.07166046090430        0.33781631977924       -0.28506433068714
C            3.46371601482971        0.24570235576088       -0.53178260208079
O            4.12047115400091        1.49119080916333       -0.79791801765669
C            5.47841930965741        1.39891427453138       -1.02613518090575
C            6.17648796646978        2.59456324669421       -1.28548548324034
C            7.52160264289468        2.59573469150180       -1.51919252603797
C            8.26140885368771        1.40094929609965       -1.51044012405742
C            9.67274523203258        1.43819761682322       -1.75402452392764
C           10.49294680353456        0.35918346142486       -1.77430601585022
C           11.88920011708426        0.41639470911672       -2.00500857091673
N           12.71607330874540       -0.66112641359925       -2.03679106556079
C           14.02418768122481       -0.31575808072031       -2.26608336156959
C           15.08083681711062       -1.25927441193912       -2.34478382710183
C           16.48395651922865       -0.84645926699538       -2.54673250081792
C           17.18768681015437       -1.20085329813451       -3.71264736613328
C           18.48650592784330       -0.82316305907069       -3.89642067026642
C           19.17032569563194       -0.06489809096490       -2.92514758572274
N           20.48905378701420        0.30772032068187       -3.10500051765824
C           21.25651340239821       -0.10871807793479       -4.28089164943844
C           21.20685467608131        1.11598568662252       -2.11680236649421
C           18.46302157681996        0.29286223531432       -1.76002126788708
C           17.16430572812519       -0.08571708902384       -1.57782747912533
C           14.71168070597959       -2.62163451403598       -2.20165221783266
C           15.49344325834225       -3.81469977730587       -2.15630201421785
C           16.96808678323856       -3.93850765320848       -2.25934382238146
C           14.61813491841160       -4.87294855800600       -1.98045139622575
C           13.30453022759061       -4.37209845937484       -1.89138915809938
C           12.05475705819115       -5.12233896442483       -1.66364678784408
N           13.40396257172583       -3.04375478293764       -2.01408881247852
B           12.20307653531441       -2.09864159503591       -1.89255586995065
F           11.61696877342830       -2.25572348522189       -0.64288872147652
F           11.30005285211126       -2.36988326990559       -2.91263898516387
C           14.01436072297517        1.11554772375732       -2.42765416111757
C           15.16632569317307        1.99917697031529       -2.73101135048299
C           12.72188906764147        1.54526621630096       -2.25051290217442
C            7.56780716877903        0.20514933022187       -1.25376069185802
C            6.22154756848820        0.20184289606041       -1.01936897919798
H           -0.16357889176125        0.52769166754549        0.10731401309539
H            3.63845415365049       -0.40921978483050       -1.39424454891605
H            3.95752094691196       -0.20752013496891        0.33659179051493
H            5.61850505163004        3.51395992245522       -1.29348234713507
H            8.03273210183123        3.52294858927110       -1.71380743117850
H           10.10908894107542        2.40478042568201       -1.93121818004890
H           10.08717376941982       -0.61978415623392       -1.60359029784036
H           16.67514675530860       -1.76838082073920       -4.46995615500857
H           18.99708026652393       -1.10398346664456       -4.79983870434509
H           21.25148851293977       -1.19383049955668       -4.36402642376130
H           22.29195425598136        0.21791232064302       -4.21273798624786
H           20.82105540843840        0.32148505812512       -5.18067436133882
H           20.67235332983929        2.04684774457264       -1.93750345067572
H           22.20806785115309        1.36409514788505       -2.46241642612522
H           21.29446883054823        0.56799420028625       -1.18063429276375
H           18.95916193152941        0.86755852567734       -0.99895618547084
H           16.64202689995343        0.18316668315989       -0.67599045067468
H           17.46786349857992       -3.13391776157042       -1.71968867450673
H           17.29066822488578       -3.90454608095220       -3.30001232569373
H           17.31071713523223       -4.88280462333369       -1.83525256390959
H           14.89673762072254       -5.90992303486043       -1.90264912631940
H           12.22202583258480       -6.19810314385538       -1.72064210011740
H           11.30749517003787       -4.85120390388973       -2.40975272404176
H           11.64408255269969       -4.88993072597660       -0.68090730690406
H           14.83345499104072        2.92475141944187       -3.20160812638623
H           15.70537336061186        2.26241774855383       -1.82083772089208
H           15.86390318470458        1.51515109709864       -3.41454864222365
H           12.39392781098017        2.56839607531970       -2.30598152774373
H            8.10583339289747       -0.72545718704545       -1.23948006721035
H            5.72523063616225       -0.73136832308419       -0.82611686302315
