20
 energy: -3.851191933196 gnorm: 0.000907560226 xtb: 6.5.0 (97a52f5)
C            1.08814458068888        0.02367973996303       -0.04679971069721
C            2.55738699082297       -0.21141635575469       -0.16312108702572
O            2.99248261334764       -1.33753830533330       -0.03746927301471
N            3.35414993403785        0.89175587126733       -0.43272353652868
C            4.76060016097232        0.89508820541873       -0.58886066843952
C            5.50940492674768       -0.27251260780702       -0.49856907232870
C            6.87440362997993       -0.25841142697774       -0.65369484754356
C            7.54703076285993        0.93699481425004       -0.90713243788328
O            8.92410815885646        0.99413452002759       -1.07002388006259
C            6.79654905222591        2.10932970420788       -0.99747506072621
C            5.43116612091303        2.08874592219762       -0.84213017106152
H            0.64693217629644       -0.69341320139017        0.64374052038604
H            0.60308045407619       -0.09592983192298       -1.01446509825338
H            0.87454993358418        1.02554518716450        0.32290270046160
H            2.89008682179686        1.78575582426348       -0.54263629840687
H            4.99331341736101       -1.19475721515479       -0.30372716351884
H            7.43597797650981       -1.17236304155638       -0.58183162192868
H            9.31405121964384        0.10414628332866       -0.98427543382508
H            7.31345988111001        3.03188088569859       -1.19288327154659
H            4.86510118816899        3.00068502810965       -0.91439458805649
