59
 energy: -12.187933607450 gnorm: 0.000691471264 xtb: 6.5.0 (97a52f5)
C            0.51091069887762       -0.34963858115258       -0.70295237257525
O            1.90288994970026       -0.16628817614779       -0.82793230087948
C            2.66295683571810       -1.32427649846035       -0.66480075408991
C            4.05380767990296       -1.20755516013467       -0.78106458397528
C            4.87343007383418       -2.29516829449824       -0.63119459948646
C            4.34538507230454       -3.55843279935798       -0.35027397861199
C            5.22401776590004       -4.74048295105475       -0.19987009375511
C            6.30655521535302       -4.73912333355584        0.63926193943866
C            6.65337622650272       -3.74650948417874        1.63439367662477
C            7.97417287405622       -3.65509422103347        2.09017963437133
C            8.33421502483507       -2.73453909641010        3.04092813722609
C            7.39443436184753       -1.86201151004330        3.60342576288667
C            7.84003909314590       -0.90030123704942        4.59162843864985
C            7.10794961345023        0.00450282035685        5.29426365383835
C            5.71809660548448        0.09924720952544        5.17052935531649
N            4.56234459368405        0.17543729118381        5.07313889308788
C            7.75689772379525        0.91743109685778        6.25594091356645
C            7.01182594172535        1.50187510597771        7.28143861437971
C            7.59591616577827        2.35223917060579        8.19277857354093
C            8.94052533744836        2.64705231112292        8.09950298310560
C            9.69557989137173        2.09110278944986        7.08696661518930
C            9.11378881955636        1.23868261924637        6.17471141128981
C            6.07094074110191       -1.97309406423459        3.16513413597833
C            5.70971748727137       -2.88977305385650        2.21337890885863
C            4.95414980749737       -5.92003356516263       -1.04151169295164
C            5.32474455627228       -7.20759764249360       -0.64304293805986
C            5.05808881000646       -8.29505573963874       -1.43384508052756
C            4.40662172067299       -8.15809288436130       -2.66573476046617
O            4.17300846810184       -9.31701810713627       -3.40563606778982
C            3.50818484644306       -9.11224617625439       -4.63194553106719
C            4.03352281660793       -6.86836651655764       -3.06296886373023
C            4.30055434253467       -5.78252707152523       -2.26934296420677
C            2.95745330791450       -3.68067560595711       -0.24428382136461
C            2.13558723322452       -2.59354489855204       -0.39443362054372
H            0.01887334227635        0.61407367512197       -0.84127014992968
H            0.27207102570615       -0.72857108091026        0.29172117612697
H            0.15629800970951       -1.03937656204185       -1.47014587866010
H            4.46576724289154       -0.23660444191276       -0.99135622814105
H            5.94008110562364       -2.18739203299166       -0.72672289565028
H            6.99211789624320       -5.56374061452677        0.55112953908695
H            8.71566381469491       -4.31439853459605        1.67251010924249
H            9.35882815874008       -2.67558342066308        3.36588179248373
H            8.89391837175030       -0.93332121757893        4.80014108218706
H            5.96277048124788        1.27559914176150        7.35409691896939
H            7.00244406450179        2.78920409263122        8.97924784490715
H            9.39878594200889        3.31343975283738        8.81184234209977
H           10.74396901366427        2.32844390586734        7.00779316712653
H            9.70965391726596        0.83857929395739        5.37373755360692
H            5.31846377780843       -1.33149229895769        3.58080279971110
H            4.67992347601960       -2.96719046863236        1.91442971220246
H            5.80221695345208       -7.34755359329166        0.31084041797175
H            5.34193452859390       -9.28341553475742       -1.11844891676318
H            3.38034420407697      -10.07759846857337       -5.12357197714066
H            4.10506907078130       -8.46481285223223       -5.27597810556854
H            2.52521320741329       -8.67370036545883       -4.45401320600108
H            3.53087477289258       -6.72446566667417       -4.00178697335748
H            4.01167251689982       -4.79799716863912       -2.59418991787767
H            2.53919418918422       -4.65045421769546       -0.03594742371962
H            1.07233121461281       -2.72063506756961       -0.30475040617103
