59
 energy: -11.102041733908 gnorm: 0.000912581031 xtb: 6.5.0 (97a52f5)
C            1.06676584495336       -0.31868918782841       -0.09567010852463
O            2.46676402089152       -0.19292572326738       -0.20451172837271
C            3.18197994406592       -1.35510527350558        0.08456240681152
C            4.57572118268398       -1.30763905206167       -0.04332578670381
C            5.35188521655895       -2.40271489218791        0.23003591055519
C            4.77600959139920       -3.60344547270503        0.65290505591156
C            5.61259451944983       -4.78963679634006        0.94678625876469
C            6.66573251164752       -4.73481171700871        1.82092759093159
C            7.01034282675780       -3.66300632126805        2.73048043844766
C            8.30957108099009       -3.59176911949519        3.25041825047139
C            8.66966176131017       -2.60356415823400        4.13071879530589
C            7.74555688139028       -1.63972910245473        4.54695119501458
C            8.13767139966019       -0.59487500414514        5.46210109460667
C            7.33066599855821        0.35766558377846        5.87707699561536
C            7.59514817787797        1.37783975539050        6.72671423183474
C            7.83594671527811        2.25821348879565        7.46455404888321
C            7.60276347823318       10.29824065324617        9.35461016750367
C            8.45930227100497       11.04251573289235        8.74832215927734
C            8.53444494461239       12.36715492302616        8.76534913553773
N            7.81381710276230       13.21785615903885        9.35572645409905
C            9.10593872739562        0.52641196833809        1.15223425505382
C            8.14817105576667       -0.34615446130923        1.08055782102125
C            6.44143427057207       -1.72112640270301        4.04924830234845
C            6.08307955570513       -2.70890315874200        3.16879063710091
C            5.33603973493935       -6.03521699826300        0.20963842742691
C            5.69246398038807       -7.28785492572862        0.71779227915559
C            5.42404683001020       -8.43569947358637        0.01808177552290
C            4.78271043859654       -8.39798211962758       -1.22593126920784
O            4.54747745921932       -9.61271951605897       -1.86962111468683
C            3.88685522362636       -9.50689208466165       -3.11042987576003
C            4.42141650436160       -7.14360283671466       -1.73204415961902
C            4.69128770518268       -5.99720554058471       -1.02992614387036
C            3.38460968891187       -3.65910967021122        0.76905797723583
C            2.60599386453422       -2.56422368536777        0.49522297538479
H            0.60965932398670        0.63557793511344       -0.36098710895158
H            0.79384359765822       -0.56736721791827        0.93084584897383
H            0.70732768700931       -1.08496260757065       -0.78392147021620
H            5.02658707894447       -0.38517859186597       -0.36313890048637
H            6.42137071142075       -2.35021234165264        0.12464362271822
H            7.32856952381875       -5.58196273588017        1.83850263223494
H            9.03464623431137       -4.32459706157923        2.94039980365509
H            9.67604171576285       -2.56015946487082        4.51004202553810
H            9.15224568754994       -0.59844296342397        5.82028512559188
H            3.30434814336079        1.63214330888656        0.75617465434311
H            8.21618415292680        3.58990310109932        8.53987962689692
H            4.69702325065239        6.03413121717343       10.77121204828549
H            9.72697992260536        0.65578779900998        1.99077993434667
H            7.89523796582103       -1.00574728532271        1.85834840790031
H            5.71546711030715       -0.99355958904479        4.36824202257484
H            5.06771459392083       -2.76546223776716        2.82102651350296
H            6.16055116845713       -7.35248769503081        1.68422949283199
H            5.69902778649781       -9.39604132919358        0.41688642207364
H            3.75091913267422      -10.50939965172221       -3.51845532975655
H            4.49092449596340       -8.92213312150080       -3.80557943101164
H            2.90752203778592       -9.04633893828072       -2.97272637170269
H            3.92686688837789       -7.07495036762253       -2.68361632324589
H            4.41126706698465       -5.04174739566786       -1.43831880799628
H            2.92957566135249       -4.58142138861004        1.08686040706077
H            1.53906856193268       -2.63766694206300        0.59988069778679
