45
 energy: -9.228599038309 gnorm: 0.000932547694 xtb: 6.5.0 (97a52f5)
C            1.01722941914776        0.23723607270574        0.36116262790772
O            2.41481340364990        0.27308498439654        0.54159143349884
C            3.05430463903438        1.36940973042550       -0.03785697249664
C            4.44491985674914        1.45451888681144        0.10096729083603
C            5.15061749148980        2.49736762678120       -0.43967813892837
C            4.50188142033810        3.50741071218138       -1.15412743634339
C            5.25503986920733        4.64495892857097       -1.72939954418568
C            6.34048586294673        4.46172366400566       -2.53984560370349
C            6.81545568993069        3.21968117724240       -3.12108115872305
C            8.14793231905520        3.11775802605955       -3.53399807248687
C            8.62726334041509        1.96367453445342       -4.10552253960988
C            7.79478184348570        0.86621636624203       -4.29938932726715
C            8.28587823974027       -0.31222027652809       -4.87985811403138
N            8.69333950970275       -1.28692876011676       -5.36251630604745
C            6.46307740631927        0.96516651340722       -3.91019088178461
C            5.98203872874964        2.11802377750729       -3.33921906102119
C            4.85034918966273        6.01045577352339       -1.34679841867845
C            5.08522843903908        7.10794011041332       -2.17941368504193
C            4.69855487753863        8.37002187002221       -1.80892467193854
C            4.05463090336899        8.60517964998693       -0.58890963781794
O            3.69739673153656        9.92081081501572       -0.29009528384431
C            3.04873651337888       10.09148595943366        0.94915306556871
C            3.81354365609266        7.50493711624373        0.24154398419880
C            4.20163419038856        6.24357688484748       -0.13147565764794
C            3.11350459522528        3.43115357253394       -1.28716233169617
C            2.40547931378482        2.38840225039450       -0.74622610330677
H            0.62915319338942       -0.65685774621142        0.85064339940034
H            0.78009521829834        0.18855909290092       -0.70253886938040
H            0.56050562297291        1.11679537402551        0.81666974661551
H            4.94988529654230        0.67557007849068        0.64438565819339
H            6.21913769729785        2.54867085843049       -0.32031141612081
H            6.92468908272429        5.33342634098497       -2.77646219676090
H            8.80427956894626        3.95875288050373       -3.39021395702899
H            9.65747588606666        1.89552130574126       -4.41065971833287
H            5.81133221624492        0.12246893921523       -4.06505522937221
H            4.94402379506041        2.18255328105650       -3.06753320977499
H            5.55422509545605        6.95476293461263       -3.13539863268574
H            4.88105238805647        9.21014431295137       -2.45536739646270
H            2.82059762008602       11.15050046907003        1.07722123830957
H            3.70454473566175        9.77058760271337        1.75949965187434
H            2.11712175704662        9.52440932013702        0.96175199047423
H            3.31767691955351        7.64696033648906        1.18425481354544
H            4.01286909407402        5.41018072151418        0.52274365522357
H            2.60270225761701        4.20680298768730       -1.83155441237465
H            1.33875510492510        2.35578494313093       -0.87145457075288
