44
 energy: -8.220845788883 gnorm: 0.000474939014 xtb: 6.5.0 (97a52f5)
C            2.14311430980696       -0.00228889746476        1.14800174827901
O            2.09819436008352        0.13470401170364       -0.25574155993337
C            2.75778689846166       -0.86151324056096       -0.97723211230029
C            3.44898544599055       -1.90658293797172       -0.36962202656823
C            4.09349940077095       -2.87010100568254       -1.11089172524418
C            4.07652132188985       -2.83739626171831       -2.49537555466464
C            4.78914126280149       -3.89494019404103       -3.24766566741264
O            5.59423384041921       -4.61266582809832       -2.67545667490958
C            4.51579878812285       -4.08376705439356       -4.66283146298118
C            5.15504747723747       -5.01838438407844       -5.37931326580999
C            4.95403013602343       -5.29429298877165       -6.78580024054705
C            5.62197360652221       -6.36883236287029       -7.38278030247810
C            5.45078579089377       -6.66157665243743       -8.71112695298615
C            4.60470555404867       -5.89149841367241       -9.51789362880579
N            4.42717618842702       -6.19057302001278      -10.87763234348536
C            4.98242814849502       -7.40548729642639      -11.47603351216515
C            3.65923118569268       -5.31418751828528      -11.76294137202434
C            3.94135901949024       -4.81265021665929       -8.92108716477870
C            4.10992553412300       -4.52239121568109       -7.59150897999851
C            3.39874501483957       -1.79204976158726       -3.11814121246466
C            2.73547578671867       -0.80855012963461       -2.40213779841498
O            2.09225483869682        0.18192146402975       -3.16581687222482
C            1.26505117223214        1.06342596066767       -2.45159051785191
H            3.17598724429606        0.05152203376492        1.49465354393972
H            1.68489153410174       -0.94645290996604        1.44569024746787
H            1.57937373725654        0.81768949180735        1.59475611665854
H            3.48704777264610       -1.96655323300659        0.70243452571715
H            4.62629637267333       -3.66823278210952       -0.62286639510502
H            3.76276756855218       -3.47811818465448       -5.12630559977672
H            5.87876228137172       -5.62326931259793       -4.86167057438362
H            6.27844153930868       -6.97320465493590       -6.78056889874375
H            5.98267253109913       -7.48909193479546       -9.14514401684437
H            4.72158782364696       -8.27237986152034      -10.87221682754626
H            6.06581793682381       -7.32754071109380      -11.54108127958633
H            4.58670645575642       -7.56359590705223      -12.47697382245668
H            4.00255888158873       -4.28671720118966      -11.66048873375708
H            2.60161523931951       -5.36558237865228      -11.51235302893176
H            3.78223129855566       -5.60568128008220      -12.80380111246950
H            3.27928206056561       -4.20871732496675       -9.51520042525536
H            3.58761801918246       -3.68533583375239       -7.16439085357174
H            3.39027089298517       -1.71482140143236       -4.18834741226511
H            0.74003116811578        1.71136299258268       -3.15471567037271
H            1.87841171743455        1.67012504759674       -1.78376590412320
H            0.54034284294324        0.49175328971608       -1.86981467883090
