38
 energy: -7.668418137772 gnorm: 0.000438998905 xtb: 6.5.0 (97a52f5)
C            1.35379121271003       -0.39476127841702        0.33867251341836
O            2.39385789464970        0.51581389220778        0.60799431453154
C            3.21604157550333        0.17470228602904        1.68144033022009
C            4.26865731414936        1.04632271289605        1.98706616587102
C            5.11942637404387        0.77986254977922        3.02351030561771
C            4.98332320843290       -0.35748806747168        3.81087969206068
C            5.96326480789439       -0.54063879292976        4.90076944392342
O            6.72229004223785        0.38036140424674        5.15344782492768
C            6.02989717669624       -1.79644625975539        5.62687345714081
C            6.84169556950790       -2.12792431143698        6.65833066075001
C            6.80848911254509       -3.47881112919237        7.26097894764209
O            6.08941047395687       -4.39275072353181        6.90651925928161
N            7.74295244965852       -3.49010114150741        8.28681951318724
C            8.36751351600101       -2.25011717348407        8.39567688962261
C            9.34383925299782       -1.81923785271518        9.28604349851622
C            9.79623740291126       -0.52343316481582        9.19492800368080
C            9.28797408877181        0.33919744810064        8.23036783013479
C            8.32189193604360       -0.08248051684551        7.34423497519739
C            7.84724348312829       -1.38638439786310        7.41444213985842
C            3.91808890218847       -1.25542619180094        3.52966642001571
O            3.75891464038105       -2.38518561343366        4.32656263694520
C            2.66119072529314       -3.21105339197249        4.01410042049106
C            3.06459266739197       -0.96270177207224        2.46670808008372
H            0.79116455161559       -0.02713910293783       -0.52075113689576
H            0.68642137203453       -0.45867948411480        1.19952731466579
H            1.77093978030324       -1.37355404007651        0.09703260732749
H            4.39057908729794        1.92960338894680        1.38547468513320
H            5.92471851436470        1.45819567665317        3.25054185510595
H            5.36015735359655       -2.57010844948970        5.30271876073429
H            7.92127541813558       -4.29077985580565        8.88021573368014
H            9.72800885556065       -2.49626412229697       10.02797100590138
H           10.55180284425503       -0.17290643054426        9.87865974041962
H            9.65493878353547        1.35095360549023        8.17621365813524
H            7.93102133567042        0.58335784183942        6.59907697472354
H            2.64784598182339       -4.04080270169286        4.72241905476840
H            2.77162495406048       -3.60996247532375        3.00466299843050
H            1.73244619534217       -2.64714936661897        4.11294595520416
H            2.26065114530772       -1.63478299804450        2.24600746954942
