43
 energy: -8.295852395759 gnorm: 0.000717466816 xtb: 6.5.0 (97a52f5)
C            1.24946466697819        0.07742250838300       -0.10474603233038
O            2.44126128390939       -0.42826602629622        0.44905708828604
C            3.04878155275687       -1.44711082885171       -0.28280799687589
C            4.22548793866666       -1.99730347008331        0.23785548343473
C            4.88582485952947       -3.00531705885594       -0.41564044086691
C            4.40075981150409       -3.50295259414016       -1.61688327948117
C            5.11355440526795       -4.59340514820423       -2.31788722989223
O            6.04108737180895       -5.16415846216923       -1.77410106076109
O            4.66707181370394       -4.89708909106037       -3.57484275344310
C            5.43046039091823       -5.95351472624826       -4.11041086130773
C            4.94828872871603       -6.41322845075348       -5.44018796285580
C            4.46636870804445       -5.62164924240374       -6.44260156734707
C            4.26850974426157       -4.15974615559969       -6.39449754667146
C            4.11159772658211       -6.44158044871103       -7.58675788564224
O            3.63712856623474       -6.05766636068834       -8.64573296843841
N            4.42749221338318       -7.75379095863448       -7.21764540688147
C            4.41128388240150       -9.07643897876063       -7.67167568234843
O            4.02865126408928       -9.48853728210300       -8.75693701359980
C            4.94290270290439       -9.86887166966545       -6.57653102563667
C            5.08866738046795      -11.33815419025099       -6.63477667409806
C            5.27275939230484       -9.05397108892023       -5.52844522010756
C            5.82700256148055       -9.46219924143335       -4.22345919597039
N            4.95735739334406       -7.73892241913305       -5.88199435488402
C            3.23468124547961       -2.96484963803867       -2.14447667630778
C            2.56766622391037       -1.95776236760323       -1.49404010948672
H            0.87486681297949        0.86241244578315        0.55415308768711
H            0.50604607410746       -0.71871902562231       -0.16964710893791
H            1.45044707424534        0.50470119397801       -1.08841630320468
H            4.59954349284298       -1.60863108066707        1.16864392194237
H            5.78929852507979       -3.42723160153558       -0.00874114526285
H            5.39500783044623       -6.77474261845069       -3.38700969216573
H            6.47062002828276       -5.61239550223790       -4.17543275785361
H            4.85137292453026       -3.71313606746143       -5.58837086720958
H            3.21828501812706       -3.92202130093134       -6.22468625571418
H            4.57273251209212       -3.69956239402828       -7.33503438790359
H            4.68570992895963      -11.72265545191575       -7.57256398685130
H            4.55095858991822      -11.81694306944495       -5.81598268439251
H            6.13790949231376      -11.62849993922677       -6.57583525566470
H            6.28103642436126      -10.45153136745659       -4.27890215027837
H            5.04507422273590       -9.49133647916675       -3.46430303210789
H            6.59749610655729       -8.76489576628447       -3.89491687534092
H            2.86001958019428       -3.35867547336491       -3.07392431885612
H            1.66513353475873       -1.56101311132756       -1.92167381490691
