45
 energy: -9.086980028472 gnorm: 0.000724764689 xtb: 6.5.0 (97a52f5)
C            0.94486019487303        0.37469841450020       -0.78346670305489
C            2.42142492390526        0.19834550012746       -0.89501529912692
O            2.86439157056069       -0.79737261231487       -1.42456714544469
N            3.23654673467133        1.20544568119888       -0.39515927077233
C            4.64133036408559        1.18643960140347       -0.40641305058963
C            5.38330606868340        2.24819235523664        0.11011990670835
C            6.76260718733000        2.20451938550731        0.10258105299719
C            7.42555601861324        1.11647261064940       -0.41129345401761
S            9.22248431945802        1.07221516727632       -0.41185065525430
O            9.66317315202368        1.21072594110799       -1.83278593915683
O            9.65367898538705        2.16847182140489        0.50619445797540
O            9.57948626729772       -0.36567605859941        0.17362186319755
C            6.70903740341833        0.04567837267742       -0.93079069366112
N            7.32858467420257       -1.06880110593444       -1.44696201302899
N            6.66214810680524       -1.99750511373799       -1.92249977246771
C            7.24152043258098       -3.11466464411074       -2.43350833396235
C            6.44648205758651       -4.03875136804859       -3.10584818639672
O            5.10528315186066       -3.86183367657026       -3.23819534652523
C            7.05156183401551       -5.21422232339004       -3.68207158049960
C            6.27058406569687       -6.13526017508086       -4.37790905795155
C            6.83379640158683       -7.25625787454794       -4.92877699667577
C            8.19565722846762       -7.48346601807382       -4.79489915787358
C            8.98308613123573       -6.59020411923480       -4.11535396055238
C            8.43334553032902       -5.43788122580036       -3.54623161055365
N            9.21125364860790       -4.50157038404351       -2.84947863141481
C           10.63830194495433       -4.70297653042149       -2.66468240617696
C            8.66224665105131       -3.34099730862281       -2.28710398184940
O            9.37965265480800       -2.55553579181961       -1.68164120472490
C            5.32670654472675        0.09952252260757       -0.92175614478763
H            0.47249660764455       -0.57994769147640       -0.55551536325709
H            0.53270062701962        0.73845901139209       -1.72371324776340
H            0.68343759407003        1.07901418833266        0.00507597196260
H            2.79272983201130        2.02195832340948        0.00853535881784
H            4.86975850565914        3.10144161951634        0.51721578759278
H            7.33671856525851        3.02333231348573        0.50613440473937
H            9.49909170134755       -1.09024825819089       -0.48889113160719
H            4.81505990857153       -3.04351581516986       -2.78397374822365
H            5.21459679603131       -5.94458049069440       -4.47267882765197
H            6.22031675888422       -7.96173742484158       -5.46524078805822
H            8.63556693272320       -8.36710201323941       -5.22825474412889
H           10.03778310324314       -6.77728147458671       -4.01986767763995
H           11.14102494606516       -4.74133323681883       -3.62902693630491
H           10.81806229251895       -5.62523018395962       -2.11558741946617
H           11.04806564258524       -3.87289950966513       -2.09117336349866
H            4.77937593753868       -0.73178040083948       -1.32516495986787
