52
 energy: -11.015235198295 gnorm: 0.000512084802 xtb: 6.5.0 (97a52f5)
C            0.95797779937416       -0.03933495404181        0.42471373248587
O            2.15459806209926       -0.10926069629453       -0.31725895467593
C            2.78269222160975        1.11838878788956       -0.53269106898536
C            3.98604898994564        1.11352581267121       -1.24797559529095
C            4.66686755245996        2.27728227234042       -1.49889630366287
C            4.17526328556477        3.49440256240286       -1.04721777413428
C            4.91302145705231        4.75095251792602       -1.30986557401949
O            5.95126881326422        4.73135661356070       -1.94702096935421
O            4.35251278197866        5.88787519750187       -0.78701888089314
C            5.15447989445226        7.01391660475174       -1.07178607834757
C            4.65618307895780        8.28191244007884       -0.44122901341259
C            4.58729879073611        9.42910752112824       -1.18407906565570
C            4.16549336034678       10.62917214598163       -0.62437946680897
C            3.80496531157402       10.72441966565223        0.70612526484318
C            3.36569059845675       11.98822219066738        1.30246744360732
C            3.26783506657023       13.15576360339651        0.56568226989341
C            2.85729669457479       14.35359636886430        1.14281197848884
C            2.53601208794079       14.40902192757580        2.46573581078174
C            2.61196527605678       13.25288256067328        3.26814777984447
C            2.28192373213013       13.29355330498789        4.63767889596207
C            2.36071652909424       12.16714607020037        5.40014601841239
C            2.76664473335814       10.96078175532349        4.83774533122337
C            3.10172540722567       10.85700044730417        3.49882391519911
C            3.52618216194259        9.59041066006812        2.89678718592938
C            3.60332159549615        8.42149816761459        3.63264909668796
C            4.00703192608633        7.22260550300668        3.05655325893827
C            4.34334697980822        7.17172464184711        1.73839908538904
C            4.29322148543609        8.32513026774159        0.93073906542186
C            3.87228191949654        9.55058147115024        1.51226454909510
C            3.02793001733968       12.02749592711025        2.68740499568929
C            2.98099276817119        3.51260551582028       -0.33863261893021
C            2.29520265137534        2.35175855375077       -0.08412727614744
H            0.56379793928953       -1.04958672690914        0.54262517358177
H            0.22366991529046        0.56569871763802       -0.10917393267823
H            1.15516243602293        0.37998642758742        1.41246098478387
H            4.36596562386146        0.17000276096199       -1.59749131922262
H            5.59251776446732        2.26419685360248       -2.04820902744667
H            5.19650105396541        7.11321843022839       -2.16274241664966
H            6.17280724315063        6.79770212138038       -0.72732225968357
H            4.87067761022403        9.39850198330367       -2.22221122005613
H            4.13049391170323       11.49899529610646       -1.25364507095163
H            3.51041091036945       13.15215316124618       -0.48068308781373
H            2.79442695529825       15.24302838803677        0.53739635372882
H            2.21964086793743       15.33635528836752        2.91105481041713
H            1.96754368907008       14.22596290197088        5.07374742985112
H            2.10730365278877       12.20914898903549        6.44687767451646
H            2.81838440917405       10.09595597436859        5.47256583799807
H            3.34274048737368        8.42404908967004        4.67464953484750
H            4.04856181156047        6.32817727725035        3.65652801818400
H            4.63302437754760        6.23788861090645        1.29174621656726
H            2.60247540139387        4.45858195036386        0.00878005432373
H            1.37299090954990        2.39432707623425        0.46580920812245
