19
 energy: -4.904297220672 gnorm: 0.000517378671 xtb: 6.5.0 (97a52f5)
C            0.93385189933518       -0.03362283182235        0.04244662205442
O            2.34261240612643       -0.11950187904307        0.04906827549460
C            3.00513762912232        1.11478281305291        0.03567967777638
C            4.40589315355646        1.10502838501688        0.01739043965954
C            5.12160825608544        2.27576868590923       -0.00152139543436
C            4.49431968372568        3.51519863463742       -0.00204827289470
C            5.34797774583026        4.74856051381741       -0.02629038776409
O            6.57941454675129        4.56868982874050       -0.04639745434156
O            4.79252673899865        5.86051875826274       -0.02531800034694
C            3.07835255753427        3.55242039142322        0.01955124471810
O            2.37081042554106        4.73627821762150        0.02317190490589
C            2.36971491802013        2.35242248267637        0.03768623615291
H            0.51915498000291       -1.04209356497981        0.03921139357421
H            0.59384927319421        0.48676848427053       -0.85350281020644
H            0.58528022225339        0.48476076595732        0.93630480769798
H            4.90942239165551        0.15401503253238        0.01708352170057
H            6.19794683908400        2.24730141069656       -0.01730055022910
H            3.03667121288519        5.45084341878865        0.00708133389630
H            1.29862512029762        2.40971045244163        0.05451341358626
