64
 energy: -10.440921116528 gnorm: 0.000946935135 xtb: 6.5.0 (97a52f5)
C            0.88943452378946       -0.35493106292973        0.33133574273082
O            2.12541143537122       -0.56629716537453        0.97537388998983
C            2.86602847213689       -1.65917260321601        0.52845378729314
C            2.41060244351944       -2.49914032277034       -0.48950355954026
C            3.21062122768396       -3.47893089831447       -1.02578098773625
C            4.51710881988867       -3.64422021567851       -0.58615692381179
C            5.40601846336756       -4.67521317826201       -1.18840296912990
C            4.97282003247916       -2.84678401594600        0.44212709040154
C            4.16806501668565       -1.89086382055151        1.08145219578744
C            4.67183017658704       -1.09510688006170        2.19470781838718
C            6.12053796760596       -0.92651520318096        2.42739604892337
C            7.00559031062734       -2.02082671650839        2.54599640085533
C            8.34962344771409       -1.83555986608424        2.72858850080978
C            8.90061456418952       -0.55060806578506        2.83063830100281
N           10.28112900767879       -0.35784412940110        2.98378815360955
C           11.20562773159271       -1.48547498448923        3.10300099970609
C           10.86873569556388        0.98234180987972        3.00450597222427
C            8.01824037402064        0.53828221181364        2.79125128635741
C            6.67494781578177        0.35578635507428        2.61739556276910
Si           5.47660644741446        1.74913752122271        2.81732386729139
C            6.14731637187148        3.07001362693820        3.97044666759215
C            5.02122247613353        2.43937902661383        1.13625749216987
C            3.99868671481393        0.91030899011018        3.54475600226233
C            3.14709467609127        1.54640401394494        4.40348556737019
C            1.98677831014375        0.91650432378153        4.87668252116360
N            1.11057498062303        1.57613225925334        5.75017042260779
C            1.32642756053456        2.96891035936867        6.14312585124272
C           -0.06411165964599        0.90580303727214        6.30802102660152
C            1.73079297602704       -0.39077550991832        4.43955577805840
C            2.58052411473054       -1.02900101168564        3.57776664892022
C            3.74446520857693       -0.39781506328171        3.09258544862046
H            0.43460807276644        0.54404703405767        0.74880839341564
H            0.22602226318649       -1.20166704065216        0.51193673058453
H            1.04678596831339       -0.20600213557828       -0.73778777280323
H            1.41934042880694       -2.36893952953578       -0.88234374548685
H            2.83741538696218       -4.10935726922930       -1.81427806678497
H            4.97659916429430       -5.08472254058715       -2.10286102578534
H            5.56552236119587       -5.50031641150936       -0.49396323626757
H            6.37881198680301       -4.25165643691338       -1.43909238778768
H            5.99534805845258       -2.96582861830586        0.73666226991908
H            6.60307023538144       -3.01837766070811        2.56633248331749
H            8.99632390924874       -2.69124078470474        2.80169023358050
H           10.88814472674693       -2.14478019312500        3.90780326837145
H           12.21308291656059       -1.14352244035053        3.32723959541789
H           11.23128863300521       -2.04501625945044        2.17000598886646
H           10.55491576226803        1.54007046831728        2.12517273473801
H           11.95485775611397        0.93376921998905        3.00245597789691
H           10.55040363896115        1.51450044462068        3.89819880947868
H            8.39657676007061        1.53508031323622        2.91747578195128
H            7.04338500916706        3.51672482254064        3.55075461045536
H            6.39161443265919        2.63081011817246        4.93312640935630
H            5.40846411390812        3.85140477043825        4.11829469677476
H            4.28817469046835        3.23308794893106        1.24437903806025
H            4.59558270041939        1.65174509341527        0.52170238209032
H            5.90225252945868        2.83589416521522        0.64082761921135
H            3.37441482724998        2.54826240243094        4.71528555144635
H            1.41442696730253        3.59576299237473        5.25874897618874
H            2.23622808020895        3.05148355765555        6.73293237155967
H            0.49621762283780        3.34094527386593        6.73876451955186
H           -0.76844112546234        0.66818044679528        5.51375249719016
H           -0.56775571254336        1.53824174457319        7.03515495888623
H            0.23433373319465       -0.01244312684319        6.80908998381928
H            0.84473671866907       -0.89548985611509        4.77981830273712
H            2.36337167974113       -2.02946333486549        3.24654744551683
