68
 energy: -13.039928561084 gnorm: 0.000659099354 xtb: 6.5.0 (97a52f5)
C            0.88397143890834       -2.52149723617001        1.74824685122811
O            1.90550396604372       -1.62742060986538        2.13300317075843
C            3.10779672051293       -1.85446838309208        1.54885400762303
C            4.19121229635401       -0.98755092526729        1.89998392423496
C            5.42677289711284       -1.16673352400111        1.34619278997993
C            5.60454895990156       -2.18221528240530        0.45773972847746
C            4.29118801841111       -7.05230089104656        1.51842379062073
C            3.92328426829663       -6.07066876982520        0.58845398610139
Br           3.68775110189364       -5.32023085162253       -1.20902656583370
C            4.63974774240867       -7.52248319590011        0.03641451511093
C            8.57713734083775       -8.35328723068911        1.65051246545300
C            9.93857746289711       -8.37634295981790        1.85354285539756
C           10.55199383224618       -7.23349419946238        2.30776759281888
C            9.78105773023672       -6.08589409394424        2.54952297598377
C            8.39490294273944       -6.09743298314085        2.33182591302431
C            7.79309607683125       -7.24586843674756        1.87844815778957
N            5.15696763938949       -8.29494285394097       -1.32388311994320
C            5.36986651643017       -9.08493967702758       -0.09856860068457
N            4.79814213686524      -10.23625191439041        0.02056221439503
C            3.70440353920378      -10.48165930735027       -0.78324531743806
C            3.14826766516104      -11.74968462894427       -1.02355628936558
C            3.59011816465557      -13.02336093483085       -0.44549846636215
C            2.93828822798864      -14.22004868527716       -0.73076284666159
C            3.36049747598858      -15.40666909671505       -0.18695673988147
C            4.46042093026671      -15.45781225602012        0.67232296185100
O            4.82279566354417      -16.71038319859017        1.18033293446228
C            5.94295741182655      -16.70711321215372        2.03367789424660
C            5.11628603212003      -14.25883812823003        0.96073083274101
C            4.68630696732558      -13.07653858077165        0.41300946598866
C            2.10400160636269      -11.52712143300868       -1.93662363530577
Br           0.93342439815869      -12.82731148579420       -2.64691338151422
C            2.08756709943124      -10.16176074581587       -2.19017113401380
C            1.15555937748268       -9.47422939419955       -3.09547984794225
C            0.85967882146957       -8.12699743709830       -2.90573906479647
C            0.00984479849682       -7.45653724851785       -3.75389911805712
C           -0.56712859045091       -8.12021884933137       -4.81697589343974
C           -0.28995643838693       -9.45623661651350       -5.02396608845012
C            0.55936464312555      -10.12625706204754       -4.17288087687449
N            3.07290493763015       -9.48790552901477       -1.49224474552774
B            3.43455067768947       -7.97158097250466       -1.17706946101110
F            2.29833213591327       -7.57741215476789       -0.38264268517265
F            3.30433349417851       -6.89276221976226       -2.28064075587016
C            4.62196329974819       -3.04644048553471        0.07554648650224
C            3.37074644467676       -2.89931419654308        0.60710281269868
H           -0.03075637771514       -2.24889616269852        2.27684843497656
H            1.15911805088756       -3.54149602396073        2.02137720944230
H            0.70694163466504       -2.44524666288717        0.67419314980052
H            4.00831143699429       -0.19799768765074        2.60615799895416
H            6.25401483016632       -0.52037011700974        1.60101174991345
H           10.50143130002141       -9.27675497844267        1.65842295402585
H           11.61536701238222       -7.21773875611620        2.47758727178192
H           10.25747636918307       -5.18861245042937        2.90585994099561
H            7.80888995941634       -5.21348295606186        2.51830654027327
H            6.72935717199912       -7.28878409258924        1.70440148260068
H            2.08731975299627      -14.20490912626896       -1.39343884096966
H            2.85050864256388      -16.32636480982764       -0.41387091856518
H            6.12785393549580      -17.73277686712019        2.35683929893560
H            5.73768146630081      -16.08963867364539        2.90955932397258
H            6.81759464586723      -16.34060491827788        1.49401780357726
H            5.96623683451102      -14.25811688917199        1.61842319336300
H            5.20091012489986      -12.16307963092596        0.64496868658765
H            1.31072854243402       -7.61561549661778       -2.07502413224936
H           -0.20374742854128       -6.41298285970471       -3.58894270738435
H           -1.23266263259694       -7.59641890170051       -5.48354100902932
H           -0.74166644863196       -9.97692185667322       -5.85262122635404
H            0.77160015898588      -11.16770016385918       -4.33713906090984
H            4.85147700445406       -3.84089415557833       -0.64937727968853
H            2.58585610737317       -3.57231787117337        0.31803645682398
