83
 energy: -16.770706374906 gnorm: 0.000671403161 xtb: 6.5.0 (97a52f5)
C            1.80101605982289        0.09430497885977        0.76409643823928
O            2.66040987228339       -0.63686609556639       -0.08119542169337
C            3.16755816691360        0.07817694582488       -1.15673473209443
C            4.02499837769385       -0.59636577150108       -2.04078414702348
C            4.56329218065306        0.03364897609900       -3.12943439097155
C            4.27708444164317        1.37747885755184       -3.40045299666733
C            4.85239395809786        2.06062469289014       -4.56765301985366
C            4.98044695595847        1.53881947943657       -5.87293808966379
C            4.57146709181721        0.18221766375108       -6.31025928745089
C            5.59959633133579        2.52693742900398       -6.66405007015764
C            6.00706351968912        2.51136784738463       -8.03431501046220
C            5.81957492500951        1.34426422356474       -8.87226397137345
C            6.79771097072683        0.43430298271901       -9.39863908860479
C            8.23780693507438        0.44987975238438       -9.12168745088475
C            8.74337293553029        1.20372530992489       -8.06487685503201
C           10.08935403082210        1.23636720853020       -7.82836909230269
C           10.90486161054133        0.50480100714069       -8.65748122341805
C           10.33034480933296       -0.22179153944048       -9.67169542158416
N            9.03342870988827       -0.27149814574483       -9.92318717613716
N            6.21846293936983       -0.46077038259406      -10.19161304891015
C            4.88994802749317       -0.16964200753147      -10.20894309344101
C            3.86844016341958       -0.81676980773972      -10.90775809385706
C            2.59160843396050       -0.33148226298084      -10.80477598449688
C            2.31572052828496        0.79289602176398      -10.02120550616717
C            3.31750006257796        1.41794737560115       -9.33993774009333
N            4.59488128639620        0.92729423951489       -9.42185285052510
C            6.68560655358632        3.68105373461167       -8.50027403766591
C            7.18790424523849        4.00836475746755       -9.77513693650399
C            7.15490604307445        3.14342227345625      -10.97891480908708
C            7.81092546976400        5.27084169168427       -9.67106387636956
C            8.49763905578473        6.00841325196224      -10.74369764660346
C            7.89762140196094        6.20054406098556      -11.99444068253591
C            8.54185983480130        6.88953704342367      -12.98540427378511
C            9.82327363091810        7.42850473412727      -12.78579679586881
O           10.40766048269641        8.10629887295979      -13.84615400732194
C           11.69629844365430        8.61608262666830      -13.58614210542245
C           10.41852798632440        7.24279916979292      -11.52731187521081
C            9.77054519431332        6.55492854131056      -10.53698965186150
C            7.66388014404381        5.71696333029075       -8.32454062589031
C            8.14466266177953        6.97288293711202       -7.72003098910876
N            6.99697900278081        4.75831668898788       -7.68520862973211
B            6.61088320326322        4.85853977041979       -6.20573872878181
F            5.79807580563484        5.96852650112325       -6.01671273059903
F            7.76902866765741        4.93836225096436       -5.44249743416730
N            5.83970978506274        3.59347598869211       -5.81177776184436
C            5.41117452354450        3.37306556305706       -4.57030748570109
C            5.54537672617045        4.31680118549860       -3.44485074010945
C            3.42832685367946        2.05495311550351       -2.51592763674143
C            2.88640770449830        1.42737018446017       -1.42669428998449
H            1.46388598849688       -0.56264016271229        1.56711443496372
H            0.93189288393728        0.43989482394943        0.20228589860733
H            2.33704123448859        0.93851405403210        1.20030927289592
H            4.25243331680806       -1.62770411312758       -1.83709870127734
H            5.24032080475792       -0.49637553731146       -3.77625054706688
H            3.80164342382702       -0.22688678253665       -5.65599736281521
H            5.42235957922110       -0.49938406259540       -6.30804065597250
H            4.15994414060421        0.19976447290906       -7.31734732071048
H            8.07524935172191        1.76122644915332       -7.43524609385095
H           10.49779885677055        1.82011874077586       -7.01957326124840
H           11.97287940188931        0.50058998828127       -8.51369833886624
H           10.96418729473585       -0.80154058045846      -10.32556213708576
H            4.09942593249421       -1.67443288164146      -11.51353951136215
H            1.79064803523410       -0.81748474143417      -11.33715090668788
H            1.30726342137850        1.16646826532323       -9.95745722528127
H            3.13716494805566        2.28745549832254       -8.73391297169170
H            6.15469395319028        2.74197067732165      -11.14252766583876
H            7.84338587196115        2.30610342272773      -10.87102182902920
H            7.44830924643077        3.68832939995862      -11.87457128678187
H            6.90254804703640        5.82487029671279      -12.15853782244224
H            8.07450447420016        7.03628576544935      -13.94293037196100
H           12.05566847981628        9.12319686369732      -14.48265796754681
H           12.37800735135869        7.79907110156439      -13.34520471995705
H           11.65413153717154        9.33552502389380      -12.76713323529011
H           11.39734078957611        7.64327240337168      -11.33706796456410
H           10.24739966047771        6.40741904312584       -9.58356953037157
H            8.12253006865324        7.79050058005964       -8.44082392344636
H            9.16536325749152        6.86091031852789       -7.35445757612897
H            7.51610351072987        7.24944875202816       -6.87332622478950
H            6.37296317624318        5.00306646531038       -3.62558619905323
H            5.74038704752516        3.79063683338190       -2.51024091149038
H            4.64009072064272        4.91216511974261       -3.32665884125183
H            3.18352185903975        3.08282605966104       -2.71880767197101
H            2.23433558947146        1.97640118910115       -0.77245975511071
