69
 energy: -13.989177184290 gnorm: 0.000660717770 xtb: 6.5.0 (97a52f5)
C            2.05822225309991        1.10224879322283       -0.15659635776185
O            2.76769356333576        0.06386523132868        0.48069733641367
C            3.28089930614658       -0.89754962461962       -0.37111791031380
C            3.98674426109806       -1.96937401867550        0.20430890021968
C            4.52524320577467       -2.96134364726789       -0.56625780808470
C            4.39144997934971       -2.94834866920132       -1.96245015273435
C            4.96687960692756       -4.00988479307376       -2.79439198121801
C            4.99713039460257       -5.39353735656048       -2.49987334508396
C            4.45126829477888       -6.03889189325316       -1.28146649529021
C            5.65981096754955       -6.03639400948240       -3.56083772935266
C            6.01040095103369       -7.40835383253473       -3.75496864844009
C            5.70577900819423       -8.42836770068274       -2.77025310562229
C            6.59393531179159       -9.16996003355939       -1.92289278528583
C            8.03629179438308       -8.95798745054031       -1.77415276571310
C            8.64098656828181       -7.81895689433070       -2.30202405484353
C            9.98819584013093       -7.63206849865763       -2.16686094815822
C           10.70639350632031       -8.59383916606096       -1.49785144111146
C           10.03797485966713       -9.68426263770578       -0.99763636369881
N            8.73709700172247       -9.89044299244080       -1.11370174243910
N            5.92291458127819      -10.10245845947800       -1.25102490037892
C            4.62112817704915      -10.00658320668636       -1.63827206014544
C            3.53582756894560      -10.78634248743333       -1.23707600055197
C            2.30652544880560      -10.53790998759123       -1.79155084114561
C            2.14372448238753       -9.53011642425323       -2.74434485376882
C            3.21056793154396       -8.77301021148959       -3.13252523286648
N            4.43698810040485       -9.00275072862490       -2.56918031653486
C            6.74123927416908       -7.70459206386907       -4.94310242207576
C            7.20122331669749       -8.94202734844295       -5.46803514627742
C            7.01566915958707      -10.29080134687146       -4.88076586133941
C            7.87917028165286       -8.66136917670160       -6.64551611575022
C            7.84247936748242       -7.27515164068148       -6.87220883978386
C            8.40384268147287       -6.52800801198971       -8.01269601094655
N            7.15007148074356       -6.74803396725328       -5.85164566608520
B            6.85903712746131       -5.24967950744224       -5.71104661199671
F            6.14620255174158       -4.81350841082253       -6.81989622955551
F            8.06244735589240       -4.56849270573132       -5.57818878591955
N            6.01806626186977       -5.02902760921753       -4.44763254512219
C            5.62701106895914       -3.82165041117417       -4.04677108778604
C            5.89514898043104       -2.56367699978645       -4.76878750510242
C            3.69198003897159       -1.87754457286277       -2.53891475499472
C            3.15103246543574       -0.88309876944068       -1.77177189239886
H            1.68849961900655        1.78812671973000        0.60698407549359
H            1.20777997262393        0.69174875307553       -0.70304316089530
H            2.72147221890129        1.64711467294667       -0.83006541990873
H            4.09790904162155       -1.98505510802446        1.27395811097229
H            5.09171208748540       -3.75011131247077       -0.10346637191964
H            3.63900160415691       -5.45045618845852       -0.85477905643304
H            5.22606530705768       -6.15806340790514       -0.52389054902738
H            4.04951643961503       -7.02524375332684       -1.50440156451256
H            8.04886083333160       -7.08405896471379       -2.81431743848948
H           10.47219671138258       -6.75906215705167       -2.57359797190073
H           11.77122520590294       -8.49238181479789       -1.36674519047034
H           10.59398938553579      -10.44229762708183       -0.46695087125508
H            3.68095016702521      -11.56669484150338       -0.51191085885360
H            1.45671092096114      -11.12983631767528       -1.49392246267281
H            1.17261898721995       -9.35177625472343       -3.17529240326397
H            3.11839819165495       -7.99511030094876       -3.86882376389580
H            6.01475374736948      -10.40004699725487       -4.46279250182697
H            7.73812848039479      -10.46988860906697       -4.08452990272221
H            7.14736638934024      -11.06715934944267       -5.63468924749986
H            8.35216335034802       -9.38683414558346       -7.28504961203752
H            9.38390057195374       -6.91544638569334       -8.29151525807143
H            8.51412413096569       -5.47418587289770       -7.75563642116458
H            7.74699696071009       -6.59568078254140       -8.87994476415498
H            6.77576896139829       -2.67349140575666       -5.40207565493544
H            6.07853638080443       -1.74223040263036       -4.07598586867865
H            5.05611302230825       -2.29790573134363       -5.41172725126244
H            3.55767796649998       -1.86241436381447       -3.60616511584339
H            2.61624896726897       -0.08200480912230       -2.24815242573494
