57
 energy: -11.262781673055 gnorm: 0.000475192263 xtb: 6.5.0 (97a52f5)
C            4.92249098411043        1.23150710561639        1.70710121733809
O            5.52955249075634        1.14890670367988        0.43657473837016
C            5.04257286516002        2.06042919712137       -0.50403189148223
C            5.56028652887174        1.99391151501107       -1.80334086035817
C            5.12840851195822        2.84647661714933       -2.78662613868779
C            4.15625437138025        3.81295046924803       -2.52052253016589
C            3.67157062593413        4.71704973680370       -3.57735324208754
C            2.35752972892986        5.01523407018906       -3.84351280027183
C            1.20464201167003        4.34114181672710       -3.23423560291232
C            1.23377139307868        2.95913921647287       -3.00379027430373
C            0.16908735376721        2.30860868634610       -2.43983645681695
C           -0.99183479368997        2.99943638579299       -2.07038784624130
O           -2.03074288415509        2.26333136733403       -1.49972860494632
C           -3.15580740670422        3.02554581792222       -1.12174271626564
C           -1.02353419794602        4.38152925196919       -2.29804607301525
C            0.04331155993733        5.03102096871751       -2.86368616553162
C            2.30517484026734        5.99351300623938       -5.03267888541650
C            1.52919334438439        5.34836694099504       -6.19150269299541
C            1.68607221047309        7.34138007329156       -4.62345584408167
C            3.78035687808344        6.18126165861467       -5.39222501717808
C            4.53658212073750        5.44405959874304       -4.50518181427410
C            5.94487342617558        5.46919847060467       -4.55380428080037
C            6.56959421940943        6.21749058253982       -5.50077416998631
C            5.82777102961650        6.97681822384452       -6.44216629918377
C            6.47501417604210        7.75189138600942       -7.42897994578845
C            5.75537906307288        8.48049874949269       -8.32759255012128
C            4.35687370754376        8.47153509637282       -8.28569207130891
C            3.69710780328264        7.73738228304945       -7.34699325473194
C            4.40727076882861        6.96761928116485       -6.39533386127942
C            3.64121670285170        3.88592630010593       -1.22412445460098
C            4.07081899766272        3.03308165639698       -0.23940243729691
H            5.34970347700064        0.46121045911625        2.35051680648097
H            3.84857432258056        1.06015940474614        1.62023441321368
H            5.11703493765647        2.20832652419485        2.15199645231425
H            6.30454507748666        1.24726642872368       -2.01639127843105
H            5.51973733024315        2.76224968337810       -3.78570746413602
H            2.11394533137459        2.40660024761201       -3.28302183794858
H            0.20585786130839        1.24772327867854       -2.26674056195667
H           -3.89646947494536        2.35983528783850       -0.67655236707850
H           -3.59522217675458        3.50371921876333       -1.99825398105395
H           -2.86886639083943        3.77527889856331       -0.38301065920516
H           -1.89472988743434        4.94541120279072       -2.01863777681591
H            0.00509594249618        6.09758597574661       -2.98516700784001
H            0.50253323661321        5.13545727959023       -5.89605459732756
H            1.99538916785377        4.40838659345110       -6.48451433850428
H            1.49791670131561        5.99457629479270       -7.06588288674491
H            0.60778350347674        7.26344004388711       -4.50203285020525
H            1.86835570913244        8.10555788993507       -5.37620136929132
H            2.11700438956619        7.69246126328141       -3.68642574549493
H            6.51053006738252        4.90622749305953       -3.83299718448660
H            7.64461658876577        6.24366578638357       -5.54642464534902
H            7.55090407080215        7.76062385792791       -7.46179613179883
H            6.26250276589816        9.06713025287426       -9.07608283389997
H            3.80050698280241        9.05083447161219       -9.00443231400383
H            2.62304786464680        7.74187389926220       -7.33167736294973
H            2.89097256298195        4.62693536683362       -1.00779511121953
H            3.65322160714284        3.11484066335914        0.74736546016918
