61
 energy: -12.057597116308 gnorm: 0.000969489138 xtb: 6.5.0 (97a52f5)
C            4.85921637634966       -2.80652810775010        0.38962451242109
O            5.68307025443505       -1.92663139453480        1.12234599538801
C            5.21008312411851       -1.61007081072023        2.39878886979748
C            5.95545771204939       -0.70296658214005        3.16196997409917
C            5.55434586607333       -0.33197441888095        4.41967512978208
C            4.38583872838564       -0.85083691179530        4.98128611154539
C            3.94118330018269       -0.44042968131141        6.32348288648132
C            2.65913080419333       -0.08796973997080        6.67902517505867
C            1.54784090127866        0.09521941054584        5.73758590943130
C            1.75935982373577        0.72683651477520        4.50435754386302
C            0.73686356374438        0.90238116907660        3.61057598754485
C           -0.56039082424082        0.45568902271192        3.89333532721376
O           -1.54538959119506        0.66551723481321        2.92716716038828
C           -2.82190009167670        0.17301320738185        3.26937598627779
C           -0.77494467711758       -0.17504764306833        5.12613985694533
C            0.24942387547306       -0.34849254247549        6.02044006905967
C            2.63771906158494        0.28635451585642        8.17463564531735
C            2.22293773027653        1.75370180632767        8.35290997962245
C            1.72949968356372       -0.64024827989581        8.99848597476279
C            4.08893242710773        0.08625392654276        8.59549615750290
C            4.69308382223066        0.24017370621060        9.82339456581794
C            6.05048469452153       -0.05858323417332        9.97282061337220
C            6.71176987607225        0.08637029214669       11.28890886221049
C            6.04819524190531       -0.26337357553480       12.46474616241746
C            6.66409027445621       -0.13044760341479       13.69014340942986
C            7.95426546161454        0.35404953542720       13.76788249649890
C            8.62778816073382        0.70557624654284       12.61538057209095
C            8.01471950954573        0.57381309279366       11.38826900921867
C            6.76705081481715       -0.51316693776646        8.85839308935769
C            6.16552770732455       -0.66521385400936        7.62947405958286
C            4.81585143728558       -0.35731669401377        7.49261597661437
C            3.64294751327232       -1.76120121985260        4.22571725116153
C            4.04166481530513       -2.13274097348160        2.96675681814650
H            5.30534004596163       -2.96902557577124       -0.59237667989954
H            3.86865173890342       -2.36815045177541        0.25738055327983
H            4.78503765518532       -3.76566935254682        0.90412239036667
H            6.85322243968459       -0.29506145589157        2.73262710235394
H            6.12823914973232        0.38543560088317        4.98058730149644
H            2.74787053794562        1.08086564325781        4.26708725153095
H            0.91301633932131        1.38791981750639        2.66676812134740
H           -3.50838821976308        0.37516597717444        2.44629694399422
H           -3.18912549542192        0.67652517174843        4.16523541339930
H           -2.77627755830783       -0.90545205141102        3.43097260912178
H           -1.75649942291365       -0.53606034862516        5.37421138557748
H            0.06349439712006       -0.87453039779799        6.93860606688132
H            1.20733540560757        1.91601181762970        7.99392322182023
H            2.88773626907465        2.41008866065118        7.79264597839586
H            2.26405680610224        2.04536211658727        9.40158287390049
H            0.67730262499136       -0.43927069924984        8.80886023542813
H            1.89853424529929       -0.49357894212583       10.06469180510618
H            1.93293266052355       -1.68524548864685        8.76751653379822
H            4.12188116731459        0.59518409155383       10.66128966910220
H            5.04743629638032       -0.65492735915570       12.40516157525263
H            6.13825871758997       -0.40705145381814       14.58942653604689
H            8.43484386946287        0.45779878175482       14.72706281182885
H            9.63464795869963        1.08545162419991       12.67575760406289
H            8.53669469136682        0.86138122682153       10.49204068252550
H            7.80644913627083       -0.76538024447433        8.97728738227302
H            6.71947320932879       -1.03293052530977        6.78424169960000
H            2.74130972602000       -2.16940943848354        4.64940265491218
H            3.44607823103263       -2.83387622096745        2.41111313809345
