57
 energy: -11.265859795560 gnorm: 0.000670867444 xtb: 6.5.0 (97a52f5)
C           -1.42589553765044        1.32107279377175       -2.62215366053434
O           -0.18108996001591        1.14828087250944       -3.26225620719564
C            0.58829046792143        2.30987922669274       -3.36781380927268
C            1.85043492094667        2.20040991217424       -3.96390390270514
C            2.67041715359609        3.29032624272541       -4.10024216694213
C            2.26705842409083        4.54845385527293       -3.64557611041096
C            3.15848601772207        5.72402372976367       -3.76553073338592
C            3.89270591125117        6.29800145334517       -2.74735823827314
C            4.02006108898314        5.79704557024908       -1.38134277515991
C            4.59264611119803        6.56736857479991       -0.35862678673088
C            4.71297856843187        6.09822645625187        0.92415639811428
C            4.27561630561081        4.81427618277133        1.26938542181615
O            4.35771102651272        4.26091727710802        2.54712440180002
C            4.91034383154791        5.11435149507565        3.52477694379484
C            3.72044889557978        4.03134798681218        0.25140697269209
C            3.60070752757237        4.50700252966921       -1.02678526709049
C            4.62041744847523        7.52733201360090       -3.32004074145084
C            4.06969377254407        8.84374970675688       -2.74025609084617
C            6.14305561250730        7.41557965798348       -3.14183102429258
C            4.26836615117053        7.47731553613413       -4.80118097504651
C            4.68112229915765        8.32417310279852       -5.83291774481066
C            4.19255343622232        8.13521892049445       -7.09335646779306
C            3.26452369899585        7.10201420400309       -7.37105115580558
C            2.73994408136110        6.91776100820650       -8.67059788844517
C            1.83425823660470        5.93211707470114       -8.92426340489901
C            1.40750288329737        5.08488751807096       -7.89738619427511
C            1.89577190520827        5.23314703076421       -6.63363232081848
C            2.83823660217007        6.23704165382972       -6.32932110825636
C            3.37961829605186        6.44679509871410       -5.02082851424282
C            1.00672201199196        4.66439763838291       -3.05492840319989
C            0.18626493538273        3.57367794477727       -2.91852638860745
H           -1.93389211267330        0.35683422239761       -2.57757908086993
H           -2.04442630301322        2.01809582023221       -3.18895408406221
H           -1.27595288486290        1.68590044725226       -1.60515122855831
H            2.16524984320283        1.23310365561501       -4.31284709821400
H            3.64020402125700        3.18918840920504       -4.55618196004049
H            4.95332767726902        7.55373366478248       -0.57614449070197
H            5.15321004510914        6.72798074886815        1.67566613576100
H            5.93716751034235        5.37012218998269        3.26076757894304
H            4.91348746453589        4.59397975123460        4.48328791973302
H            4.30552310250484        6.01715263930302        3.61798986159264
H            3.38827526401073        3.03865452360821        0.49864818290082
H            3.19019436883668        3.86174920900613       -1.77834920189700
H            4.28600244765805        8.96036999405611       -1.68211790226604
H            2.98867669990329        8.88968131335153       -2.86706996620430
H            4.50156874853802        9.69957630184413       -3.25760905239411
H            6.42860476572758        7.41178672325099       -2.09212960380892
H            6.65151891603054        8.25015912046539       -3.62261376661392
H            6.51097083816219        6.49414748779961       -3.59163005211083
H            5.37534362987890        9.11889894777410       -5.62273618145748
H            4.50255008651799        8.78300642261515       -7.89490480624011
H            3.06461528231185        7.57294572608589       -9.46035580253233
H            1.44078735475426        5.80413916918639       -9.91935446440170
H            0.68855250345412        4.31058203602127       -8.10973982615370
H            1.55546417773153        4.58040789850191       -5.85303387613244
H            0.68990426420259        5.63006255689534       -2.70057482506279
H           -0.77640983584558        3.69324875248471       -2.45661446699026
