51
 energy: -9.877195272636 gnorm: 0.000979946605 xtb: 6.5.0 (97a52f5)
C            3.17326928457907       -1.83040653003766       -0.39683905812000
O            4.13708140892204       -0.95089527366856        0.13912562118094
C            4.30656065806014       -1.04331500351741        1.52361773363688
C            5.21423055142599       -0.16518859477266        2.12795109172887
C            5.43145925526831       -0.18533879748784        3.48193789315000
C            4.75225976612031       -1.08766610782296        4.30293813670872
C            4.96147304544170       -1.09768086956717        5.76002009173082
C            3.97447032509640       -1.17925873461217        6.71366827759638
C            2.53381169162446       -1.10414039626650        6.43600415153547
C            2.03854860918115       -0.16589086721960        5.52113410802684
C            0.70108776076102       -0.08803530518571        5.23698054511323
C           -0.22218197727257       -0.94711533230800        5.84627254807024
O           -1.56573202771276       -0.81276024946527        5.49088840886568
C           -2.43157293391948       -1.74965410842305        6.09287170546890
C            0.27047514440714       -1.88418988861211        6.76375682752056
C            1.60975446892702       -1.95975814095508        7.04902137381200
C            4.62070578919274       -1.14630857296545        8.11229334850533
C            4.14062536845716        0.08444295270326        8.89484714066218
C            4.35417809925391       -2.43450357193639        8.90681978936610
C            6.10793376476726       -1.03287837715883        7.79670762638363
C            7.20259566995921       -0.97224771675941        8.63526419983769
C            8.46895205778139       -0.91259247863915        8.08100632275871
C            8.63816916235567       -0.91940727919017        6.70546184538664
C            7.54724447979314       -0.97883365307453        5.86302648152687
C            6.27101616997946       -1.02850078463230        6.41299660093671
C            3.85053737792263       -1.96969245053707        3.70239748468884
C            3.63069106354713       -1.95002911194492        2.34847545645885
H            3.10288731900861       -1.66042612083344       -1.47202183697106
H            2.19873655984498       -1.63666048442025        0.05364464480202
H            3.47335791573998       -2.86477039154252       -0.22372252465015
H            5.73582427494869        0.53657146178657        1.50165721104555
H            6.11334814216250        0.51626713406763        3.93029014192716
H            2.73123918555886        0.50295153511903        5.03976468643187
H            0.33345135939061        0.63455951911728        4.53015314262941
H           -3.44376180451004       -1.57922847731861        5.72362406614503
H           -2.42615249780524       -1.62162174877333        7.17649186603892
H           -2.12778343440331       -2.76378590831452        5.82801464022166
H           -0.40890998709525       -2.56330754061571        7.24577085489571
H            1.96523545095880       -2.72007353152243        7.71964228890335
H            3.06613078901881        0.03793110451181        9.06930181736561
H            4.35356125918320        0.99743294051947        8.33969114452593
H            4.63959072182285        0.15150891256006        9.86074061802136
H            3.31789625147568       -2.49274869444594        9.23359005285194
H            4.97784777362597       -2.47127686925871        9.79922996981819
H            4.57972981244450       -3.31319743849005        8.30364866166884
H            7.06334618065322       -0.97580174428752        9.70218442828114
H            9.33107502461735       -0.86380604435285        8.72571164645813
H            9.63177584097713       -0.87945347920883        6.28978900879808
H            7.67292073503147       -0.99943226925178        4.79523175982298
H            3.32093917516365       -2.67041547218579        4.32473406764718
H            2.92739991830061       -2.64010114879973        1.91869189078366
