48
 energy: -9.147195454157 gnorm: 0.000761176524 xtb: 6.5.0 (97a52f5)
C            1.33292816928089        0.38644342651721       -0.59905801400138
O            2.33765310218675       -0.08927280311131        0.26804596428275
C            3.04542402201884       -1.19711684269878       -0.20667403186564
C            4.05211586614191       -1.72312951005627        0.61118674930596
C            4.78991175778534       -2.81133086481987        0.22167361653789
C            4.56095694407541       -3.42918273317920       -1.00890719013419
C            5.34367141570800       -4.60223444187207       -1.42216975416278
C            5.83045064201871       -4.86982302443067       -2.68090903397669
C            5.83005806542607       -3.92639640037480       -3.80589718170182
C            6.10789809321959       -2.57099070724905       -3.59275445509286
C            6.13415577346803       -1.67858938660079       -4.63207064655145
C            5.88645406440870       -2.08822799893257       -5.94701193282726
O            5.94088838967850       -1.11757568646700       -6.95091066544602
C            5.70863524194099       -1.60243089682984       -8.25460505604018
C            5.60248822952895       -3.44199138099538       -6.16197610105358
C            5.57591311778340       -4.33405658458177       -5.12021781079320
C            6.57898560706370       -6.22185026142702       -2.65080399632646
C            5.91772584140701       -7.28245468648519       -3.54450592121449
C            8.05523791660620       -6.03408855515898       -3.02413500323430
C            6.44936466561068       -6.63825186795612       -1.19632033733983
S            6.91774980807614       -7.92545500945522       -0.13026123940673
C            6.10933069549857       -7.17551846400662        1.21642284178708
C            5.52590129611185       -6.01071310455317        0.86503154887436
C            5.72656196555036       -5.69933403476770       -0.52175020183804
C            3.55801677395677       -2.90633222115332       -1.82849118354583
C            2.81823744277276       -1.81786197464078       -1.44049984438193
H            0.84450585099571        1.24259237851091       -0.13177047860314
H            0.58853491051975       -0.39163569736478       -0.77176201264629
H            1.77577702635076        0.70731140093970       -1.54286616377622
H            4.23529515185153       -1.24993657879429        1.55947292456542
H            5.56982829579386       -3.19104139575863        0.85832993661968
H            6.31171475008003       -2.23543608972641       -2.59079547861638
H            6.35017421861483       -0.63989621641270       -4.45548564087423
H            5.78893325430520       -0.77084054382392       -8.95603840890247
H            4.70506220854252       -2.02423140736824       -8.32409281014993
H            6.45675277825373       -2.35337347588397       -8.51270076182560
H            5.39598401919879       -3.78989022177119       -7.15761767624346
H            5.31956765655430       -5.35972397135958       -5.31061890250395
H            6.09936458321205       -7.08772878668647       -4.59932623435766
H            4.84193381626651       -7.31325176338557       -3.37587402774499
H            6.32028355642075       -8.27031857951273       -3.32272219362357
H            8.15527248338211       -5.68750718092293       -4.05194364901349
H            8.60142053469125       -6.97131584778423       -2.92499306207659
H            8.52443561543290       -5.29836602670082       -2.37207391919204
H            6.08898640648372       -7.60357461598494        2.20094850935008
H            4.96313861469618       -5.38438500987712        1.53866523043259
H            3.36905484986462       -3.37608715170967       -2.77830473225994
H            2.05384451117563       -1.44043720334036       -2.09475156841039
