65
 energy: -13.236778172939 gnorm: 0.004002219471 xtb: 6.5.0 (97a52f5)
C            2.25322248857334       -0.02474147301107        4.65036981646771
O            3.60047983209952        0.09896696924592        4.24815187910115
C            3.99321135070625        1.39608695311544        3.90683324736185
C            5.30069335403466        1.57507817106627        3.44125787680388
C            5.76276752516850        2.81471814492164        3.07985504189977
C            4.94144281514753        3.93960733278632        3.17029168632458
C            5.43819888386484        5.27834025670119        2.77738082409847
C            4.82439064048362        6.06652580083560        1.84062851931934
C            3.72320463640967        5.76704980524440        0.95151597814509
C            3.38916785530652        4.45773616579172        0.58627013245198
C            2.35349450637977        4.20703050556093       -0.27539395231811
C            1.59851025981726        5.24895035982223       -0.83002761679573
O            0.56514505987621        4.90612456395085       -1.70491013731155
C           -0.13767666184583        6.00220410181685       -2.24964756009926
C            1.93730690432978        6.55987954618375       -0.47125552579345
C            2.97242574234128        6.80784404059077        0.39178985357525
Si           5.84547842356555        7.59372162180023        1.69699369101208
C            6.71749211483303        7.65882031610877        0.05413396699819
C            6.80027007017823        6.51089802839355       -0.70535596405272
C            7.49118626413026        6.51954239806422       -1.90107039619050
C            8.10475714280540        7.67867992263329       -2.33241023950007
C            8.02522791379008        8.82787970760029       -1.57033568261639
C            7.33476195129419        8.81455810607843       -0.37356973639677
C            4.87096427176617        9.11421215701392        2.15463305290079
C            4.49708046245075       10.02841610509214        1.19343524667490
C            3.75408737878900       11.13816901198658        1.54567054713972
C            3.38573326999458       11.33069895970653        2.86255299687173
C            3.75574219190114       10.41296734828351        3.82506655632983
C            4.49770509595730        9.30364974800001        3.46857057345814
C            7.04333251856353        7.13747242347392        3.00627382144251
C            8.12753990483745        7.77745430959048        3.55479637421118
C            8.84727242209469        7.15273000570161        4.55621727999692
C            8.47098232340300        5.89699109394916        5.00016526617541
C            7.38024042240989        5.25548608525272        4.45114888600062
C            6.64635109069696        5.86954997508474        3.43499664483773
C            3.63512516874697        3.76504149289485        3.63596449949757
C            3.17007517828343        2.52515029250774        3.99481103265366
H            2.04654342250715       -1.07265838810729        4.87066803706551
H            1.59250469538446        0.29862101679962        3.84401886741852
H            2.07394097294192        0.56598805720839        5.55038799108905
H            5.93850091242390        0.71210757912322        3.36870667100910
H            6.76603167007458        2.93180284909751        2.70794066529377
H            3.96016393087653        3.63923496531875        0.98530607431033
H            2.09602622782862        3.19805813218906       -0.54369179084223
H           -0.89449775962409        5.62350892619666       -2.93810598427556
H            0.54849154390994        6.65112557601051       -2.79620040486247
H           -0.63103855492980        6.56205769556739       -1.45404167877976
H            1.37663994383355        7.38421829027005       -0.87350515134915
H            3.22207029628954        7.81959839890035        0.65780101852508
H            6.32015727335133        5.61260681760800       -0.35459994735843
H            7.55344684875025        5.62229036436876       -2.49453636446656
H            8.64416114620323        7.68749714279267       -3.26559368201909
H            8.50363633884091        9.73340565048101       -1.90723141577320
H            7.27770496527273        9.70182467728811        0.23386141768388
H            4.78805804611044        9.86727918383265        0.16766965933324
H            3.46552269870830       11.85420384121808        0.79417762020808
H            2.80846500694054       12.19755722480624        3.13981205047068
H            3.46899845383010       10.56434082682602        4.85303739693709
H            4.79301232878885        8.57903047640122        4.20824293142508
H            8.40581119663362        8.75410716153680        3.19751319165935
H            9.70120509009215        7.64643000168721        4.99079256095025
H            9.03658699095963        5.41434711546313        5.78024122365961
H            7.08605567585147        4.28315180700846        4.80345836404070
H            2.99425263466959        4.62732577916978        3.70784584404455
H            2.15883723028753        2.42472847719255        4.34463635373950
