59
 energy: -12.580413285253 gnorm: 0.000572249290 xtb: 6.5.0 (97a52f5)
C            0.71473069772571        1.46730349755605        1.03032334051769
O            1.91204769990579        0.77070650879134        0.76894376040617
C            2.34213888356828        0.82204074810915       -0.55733976941933
C            3.51450815342493        0.13184295196293       -0.88651122890308
C            4.00590496407326        0.13742120655674       -2.16583062860717
C            3.36200010190251        0.84255545066184       -3.18148522392371
C            3.91374072691620        0.79384297929374       -4.54552903699159
C            3.80015691889463        1.85822989320135       -5.44554910798714
C            3.21653205284564        3.15789320596162       -5.03835836131288
C            2.07831731381527        3.67062728497000       -5.66860846466900
C            1.53048635748271        4.86200474770316       -5.26959802789983
C            2.08746607682993        5.60345400408361       -4.22227754281189
O            1.45774292033944        6.80245113503090       -3.87224745404534
C            2.03223299126084        7.47484127535927       -2.77476657698104
C            3.23056151537317        5.09378263475011       -3.59724783001199
C            3.77961158111114        3.90229576840271       -3.99668599514177
C            4.32292418974500        1.69488833111350       -6.77710636039562
C            4.26764455246905        2.70948031895638       -7.73601610096772
C            4.77983243707698        2.52062658398042       -9.00264250229033
C            5.36478070687670        1.32283325619719       -9.34520546881679
C            5.45958889403773        0.28326706501798       -8.42097171764901
C            4.93712260061371        0.47632866142367       -7.12525827814110
C            5.04167367145406       -0.55728931996541       -6.14922582368785
C            5.64357251006412       -1.74631185654824       -6.49447102498032
C            6.16741701347462       -1.99834585163743       -7.78195395678495
N            6.71769887111360       -3.18885068026332       -8.02073687466421
C            7.18695835588822       -3.35245652061520       -9.26383991677801
C            7.78813868010861       -4.58237688299866       -9.61739069153495
C            8.27824371829688       -4.79751388625461      -10.86983329270502
C            8.19572809003950       -3.79464668291879      -11.83841216140187
C            7.62444878198624       -2.59455277620685      -11.53626740412053
C            7.10415975357075       -2.33091659244416      -10.25088365568487
N            6.55116145150328       -1.13129446510841      -10.00209326135970
C            6.08428289922680       -0.97463042174400       -8.77477189413711
O            4.55018409629425       -0.38583524022471       -4.86700499367957
C            2.17851410484077        1.51247962126388       -2.86122540718419
C            1.68283175111301        1.50969124480102       -1.58323006435122
H            0.47018785144078        1.35125211347354        2.08710045515291
H           -0.09691071674717        1.04986718908382        0.43226426446970
H            0.84601118420851        2.52839164150767        0.81238043987153
H            4.02199399280693       -0.40830942373316       -0.10712706790645
H            4.90249530382738       -0.40689504512609       -2.40828134100332
H            1.62432785932695        3.10409667637984       -6.46334920838557
H            0.65134507445416        5.24892675911092       -5.75356551671159
H            1.44685841068183        8.37294292831499       -2.57310880386462
H            3.05656167640285        7.76654329714349       -3.01195140838804
H            2.00990152163654        6.83332317025516       -1.89228888288752
H            3.68603596266562        5.63955622131662       -2.79148942599199
H            4.65686259088655        3.51887960749071       -3.50448162392778
H            3.82467549268194        3.65418525598377       -7.47678382933489
H            4.72285977892655        3.31562304526527       -9.72779158658244
H            5.76402007098739        1.17343249206485      -10.33271216654657
H            5.71323946589177       -2.51821929933708       -5.75237898442669
H            7.84997176969424       -5.35134109880875       -8.86767500918033
H            8.73135938941199       -5.74352107965689      -11.11679836168476
H            8.58590197161021       -3.97355343272374      -12.82688284894692
H            7.55926282262859       -1.81903783646031      -12.27900878753224
H            1.64466761694616        2.03053540866178       -3.63746389647166
H            0.77440482437961        2.04257421153525       -1.37022741062927
