57
 energy: -12.325698823989 gnorm: 0.000740311004 xtb: 6.5.0 (97a52f5)
C            1.23084321123992        0.22830063020058        1.38118254914940
O            2.40758785221971       -0.11277226936925        0.68650409324441
C            2.69321628694330        0.68612245698120       -0.41965619502462
C            3.86955586665611        0.41246995475946       -1.12626862504881
C            4.22793407274241        1.15411424601071       -2.22128298673104
C            3.43867264187026        2.21555937032896       -2.66112443178969
C            3.85228111890359        2.95899574315944       -3.86225354095406
C            3.57673375104414        4.31698052846846       -4.04698694257017
C            2.93576469950338        5.13069739327213       -2.98770525803286
C            1.70343528697968        5.75531961451932       -3.20357717560878
C            1.10639835864791        6.49148148823415       -2.21397520278878
C            1.70641136729011        6.64395978892122       -0.96026780132128
O            1.02041738282910        7.40536940884500       -0.01021410584929
C            1.65243815984651        7.50591332669390        1.24410270169392
C            2.94204189908353        6.02489762887307       -0.74643886474877
C            3.54010597572502        5.28788004157464       -1.73622039078198
C            3.98342707149796        4.94375192357275       -5.27883452563172
C            3.78187566174717        6.30607456283796       -5.52802850744148
C            4.18890858422566        6.87993540580415       -6.71059610786372
C            4.81324652597101        6.11693308833435       -7.67497159818890
C            5.04400526492883        4.76277136807951       -7.47004779224958
C            5.73929947213288        3.96492220781508       -8.46887307925341
C            5.87093486596548        2.52841946236642       -8.23181254088393
C            5.49342373731275        2.01541248810015       -6.96204552680406
C            4.89174560688437        2.78570696239321       -5.99836752529019
C            4.63149488640322        4.17233457978715       -6.25781535595297
O            4.53255813927477        2.20692489228725       -4.79430468736482
N            6.28138057474179        1.70589552360331       -9.15883608019884
C            6.42174158487167        2.29457552283193      -10.43176058995310
C            5.17816702697324        2.31792850613202      -11.13656749233879
N            4.16292696866432        2.33573737358585      -11.68997282041314
C            7.06857934054662        3.70936821947511      -10.30143251132129
C            7.38217309058102        4.30154641509924      -11.56454737372864
N            7.63756590547849        4.77133834237615      -12.58994354157198
N            6.27450444911077        4.55067817393683       -9.49468129711090
C            2.25069583314512        2.47455464582633       -1.97285651936972
C            1.88803395859036        1.73548863399785       -0.87694952307110
H            1.13097068330408       -0.44531846544184        2.23368000417861
H            0.36646357260769        0.10498279717206        0.72688995759619
H            1.30014466684677        1.25459501285672        1.74525671415794
H            4.48756987647202       -0.40014781146751       -0.78703202156597
H            5.12920969852012        0.92611478277305       -2.76492351744890
H            1.21848247180561        5.63503695910800       -4.15711586139369
H            0.15594825239162        6.96653776688031       -2.38143478212051
H            1.01734966558191        8.10499288434962        1.89854631935922
H            2.61766814933569        8.00220565813211        1.13291796221584
H            1.77310411900232        6.51212848549091        1.67807526464188
H            3.43198181343304        6.12498045573605        0.20464672079293
H            4.49166807808932        4.81638232600188       -1.55983638393420
H            3.31193515532414        6.91392417010010       -4.77573803654066
H            4.02344855095137        7.93083709316945       -6.88280266028115
H            5.13841007329926        6.56295659571785       -8.59870841950293
H            5.64423445602328        0.97136058457852       -6.76422832339401
H            7.10714805364366        1.65133444414561      -11.01142634744004
H            8.02236241060820        3.58803983903900       -9.75756464436262
H            1.60447470154974        3.26008975417021       -2.32146158307091
H            0.96919907065357        1.96374901777094       -0.36850318870525
