49
 energy: -9.423110910417 gnorm: 0.000529701571 xtb: 6.5.0 (97a52f5)
C            0.41035071039695        0.69802315393141       -1.07692197697669
C            1.79377064930715        0.14783725643795       -0.98453160833223
O            1.94868129093249       -1.00198524193574       -0.63134225339843
N            2.84690604161860        0.99294196128386       -1.31061119946626
C            4.21791848194793        0.66410674501778       -1.29285749100433
C            4.66481684179247       -0.61312140215901       -0.95450713982813
C            5.99860907071043       -0.92217041248759       -0.94670437405125
C            6.96579717384774        0.03354211153464       -1.27977943446778
C            6.52302746691440        1.32711697902790       -1.60769680903889
C            5.16653782151019        1.61879554006538       -1.61499888483443
C            7.48034133044000        2.37715334825525       -1.93711875838416
O            7.10302726764127        3.49330434989012       -2.26576786370892
C            8.89858251886490        2.04980890921459       -1.84496814809842
C            9.84733045196845        3.03798983983265       -2.08473709472464
C           11.18769056043581        2.76494739280158       -1.98655549387481
C           11.60565907389888        1.49120744022568       -1.63776025763533
C           10.68586226887680        0.50089385795645       -1.40128517843408
C            9.31134940085051        0.74613188181511       -1.50902956675586
N            8.34724291577138       -0.26013063505591       -1.29714051474259
C            8.78122755912350       -1.65705184784474       -1.10768684701115
C            8.97194802652572       -2.00499383719619        0.36183544964194
C            9.32779629821332       -3.47366819165149        0.59068004867378
C            9.46594014053916       -3.82987823270486        2.07066690128106
C            9.78786297224342       -5.30018845430643        2.30666901171511
C            9.87008510602599       -5.62108496099560        3.77587744957866
O            8.83287764889509       -5.71417702575810        4.39828041340110
O           11.10654347458726       -5.76762558542483        4.32436323150003
H           -0.07428605002383        0.66573351581137       -0.10231377846238
H           -0.18542898212660        0.10422652096053       -1.76844932322883
H            0.40923209055416        1.72968397426783       -1.42504215826491
H            2.61788942957125        1.94063822469835       -1.58584124298666
H            3.93192622073078       -1.35485405301483       -0.69464275764954
H            6.30056689401642       -1.91298943353893       -0.66140770527093
H            4.85707525933748        2.61379111822663       -1.87652002875476
H            9.50590998484616        4.02492582511708       -2.34695277729372
H           11.91362012489056        3.53893088363394       -2.17407720066533
H           12.65876179487690        1.27983947445267       -1.54937237852321
H           11.03444807827049       -0.47201435542376       -1.10765784351779
H            9.69757706851964       -1.83404937756407       -1.67614203904067
H            8.04732593033959       -2.31985659385297       -1.57350733830640
H            8.05945339992904       -1.75668202936995        0.91515451680759
H            9.74495690380770       -1.36081792836914        0.79547796823098
H           10.25780978749812       -3.71514053835522        0.06319994491428
H            8.56341563236987       -4.11123623823074        0.13148908289644
H            8.53977285452014       -3.57535585801836        2.59954447276616
H           10.23895645971514       -3.20469779064241        2.53211795302615
H           10.72002706039248       -5.57207896424534        1.80433927539739
H            9.01322060237179       -5.92830968232937        1.85709246240375
H           11.81469689176397       -5.65502163399326        3.66183928450983
