61
 energy: -12.557944188480 gnorm: 0.000552780014 xtb: 6.5.0 (97a52f5)
C           -0.61805472706837       -1.03264495830065       -0.19352596856613
O            0.57737605725495       -0.30249709302780       -0.04069269258231
C            1.42831242619795       -0.77257796713718        0.96001728574040
C            2.64332234942844       -0.10262695187997        1.14415849439073
C            3.54079297429093       -0.50986043097132        2.09626620135555
C            3.27891415220625       -1.61346249703032        2.90651682495872
C            4.26752681567666       -2.00082887491508        3.92657430677498
C            4.47804882959183       -3.32927421978587        4.30815334512142
C            3.78418229072998       -4.44942851502947        3.63124511860920
C            2.96796054237490       -5.33231498930360        4.34517459320744
C            2.31521003752154       -6.35651938121910        3.70995388043317
C            2.43927558757359       -6.55229535091882        2.33082421489852
O            1.72870445941884       -7.61465250741143        1.76197082229730
C            1.86419904602695       -7.73868363221982        0.36517005400635
C            3.26014386693983       -5.67262062287496        1.61759345729769
C            3.91607991063949       -4.64967838621746        2.25332185919830
C            5.44384332633143       -3.60711927270290        5.34057814592014
C            5.74762313075009       -4.91021450427897        5.75143210778475
C            6.68669101584659       -5.14652574176508        6.72917789601259
C            7.35546778372925       -4.09467379105894        7.31966314838139
C            7.09741465146826       -2.78402000055751        6.93847986805409
C            7.83344534207589       -1.67695864294154        7.53298661097366
C            7.45804000122400       -0.32077094923642        7.15087749537685
C            6.52473400666449       -0.15014839013253        6.09195756715898
C            5.87524008847972       -1.20038248553386        5.49278740332048
C            6.13587888072643       -2.53900729443111        5.93643176038108
O            4.97003505758040       -0.94954489056695        4.47543188135069
N            7.92378563339046        0.73125060158412        7.76468326429262
C            8.69804459769530        0.46442719932422        8.90877578966868
C            7.87162397563853        0.38808025383166       10.16514929206185
C            8.33170180802517       -0.23093366994492       11.24903302079998
Br           7.25028991757310       -0.27472245167614       12.78997092758654
C            9.62988119579171       -0.87226024081677       11.23500577512629
Br          10.47318947916800       -1.35072801276834       12.84982111300993
C           10.24903538460636       -1.12766072797432       10.08530575249751
C            9.57629887426175       -0.82130162513387        8.76581101265835
N            8.82766110880133       -1.93064290754185        8.32459297449017
C            2.05388025205624       -2.26565599170620        2.74582441629133
C            1.15362110397975       -1.86283298100032        1.79380345868894
H           -1.19306769818723       -0.58844422347371       -1.00711447313643
H           -1.20551865850993       -0.98025668993366        0.72410122572089
H           -0.39072226870584       -2.06930896373182       -0.44604333845084
H            2.85720302245476        0.74385580225628        0.51619279744672
H            4.46863994872309        0.01866312348325        2.23334589797395
H            2.84491319025697       -5.18561617682399        5.40442769321022
H            1.68484617065803       -7.02961462421751        4.26334805316522
H            1.26579585564897       -8.58828937318017        0.03357093230441
H            2.90828341251396       -7.92009019150160        0.10696425827667
H            1.49821294476583       -6.83538905751593       -0.12480416044399
H            3.37831855812063       -5.79537422270158        0.55674686202925
H            4.54305158461675       -3.97805620489268        1.69257300204226
H            5.24697509291013       -5.73888529876894        5.28400137136900
H            6.90470335918195       -6.15746602005852        7.03170661560763
H            8.09528467248938       -4.27584896795896        8.07931742947627
H            6.29245837924089        0.84663969815255        5.76995153473202
H            9.38169574520512        1.32385771850858        9.02650330929371
H            6.89242565156257        0.83506865387593       10.17538400524065
H           11.20702453569505       -1.62100828299099       10.09589291584488
H           10.34444037495979       -0.63244111858250        7.99693359194076
H            1.81412329005210       -3.09374801394057        3.38842317559258
H            0.22503160166901       -2.39323467069254        1.68920482168840
