92
 energy: -19.423029121227 gnorm: 0.000803738768 xtb: 6.5.0 (97a52f5)
C            0.95567859946259        1.46953935258719       -8.89092949462049
O            2.02538454456113        1.19926987404916       -8.01509187631993
C            2.36551075120978        2.24097773450361       -7.16609966906696
C            3.42513920180717        2.02591810377632       -6.27064879238414
C            3.82343116314457        2.99684818368763       -5.39448412653189
C            3.18674723808028        4.24368838368868       -5.35906662975444
C            3.59549253208583        5.29056676535060       -4.43248910297514
C            4.22045582756801        5.13560935924651       -3.17587150568431
C            4.54101951539983        3.86019049988165       -2.51067209233764
C            3.55611410391254        2.88936635346810       -2.31130757974647
C            3.85497035111303        1.70682506677359       -1.68004043911651
C            5.13835200320598        1.46019831498231       -1.22960491259770
N            5.45089907225186        0.20067852729654       -0.55216613579666
O            4.56273479764508       -0.65907141691731       -0.45670991949504
O            6.59241260283620        0.03828087239828       -0.09715359882689
C            6.12363507172005        2.41119073891186       -1.41899094776956
C            5.83319103114373        3.59599779022121       -2.05012436896815
C            4.45787566943250        6.43659936409032       -2.63999376945777
C            5.02440729139856        6.76016126286796       -1.32913130895907
C            4.82504095151812        5.92568332156425       -0.22865358993795
C            5.37322519094351        6.22715417695574        0.99680911864114
C            6.12828689183788        7.37081462766466        1.15552505181653
C            6.32693830767731        8.21653955329514        0.08388562585883
C            5.77983019146398        7.91494754292431       -1.14100047550954
N            3.98876156680943        7.31234713516505       -3.55965218817003
C            3.44392668703281        6.69528980385756       -4.65738492111011
N            2.88197871911457        7.25839320407253       -5.72698190823072
C            2.77050212695892        8.58527845389832       -5.64373482636839
C            2.10279291692688        9.43681775659695       -6.58344520185523
C            1.59001108991184        9.01437435583226       -7.87724943692003
C            1.01156643939575        9.90590256310268       -8.78981406256244
C            0.54950795982495        9.48258986185661      -10.00498265538497
C            0.64020922026396        8.13723285192159      -10.39296775180628
O            0.14067878397118        7.79381439400924      -11.63948713525469
C            0.24800538196326        6.42806790273511      -11.96783031379523
C            1.23433877983811        7.24294871603221       -9.48997007826842
C            1.69359346500058        7.67752406856082       -8.27801124331772
C            2.10632404615751       10.73669776180131       -6.02631929110799
C            1.49334447711610       11.95564913556516       -6.59727825701493
C            2.28721861270936       12.98499303815217       -7.10906110902687
C            1.71240703633773       14.12140567609562       -7.62307866829164
C            0.33728460682794       14.26509569707304       -7.63670280431151
N           -0.27034257606792       15.47996185270649       -8.18213323447772
O            0.47255628767428       16.37453745653267       -8.61156137379649
O           -1.50656221743409       15.57163104528043       -8.19548519001125
C           -0.46084952855269       13.25808009125963       -7.12660410084802
C            0.10486437074892       12.11821030507782       -6.61054929335479
C            2.82312229023815       10.69142040106596       -4.79328328163892
C            3.08377383249903       11.81252197693090       -3.88782877835669
C            4.22812491194711       11.84008723956719       -3.09400071996985
C            4.48772503567573       12.89488828643927       -2.25085923847635
C            3.60627937307997       13.95366005909333       -2.17898849532745
C            2.46363052409551       13.94830680873049       -2.95221402458218
C            2.20462632828221       12.89227624443354       -3.79515079672566
N            3.19457843476210        9.40170488112113       -4.62417343364762
B            4.06178670764722        8.83528234581059       -3.50105077916620
F            3.57930553128839        9.26950971005111       -2.28000451917899
F            5.37451942944463        9.22371091997188       -3.71811842729511
C            2.13856830227521        4.46176406997924       -6.25990109651829
C            1.73136463399542        3.49314599552790       -7.13535757777729
H            0.77892310892558        0.58103874551289       -9.49921253158656
H            1.21529146545033        2.30279921988479       -9.54609330612413
H            0.05447683553129        1.69253622411699       -8.31719665865403
H            3.91947203547287        1.07091812310538       -6.29231423381890
H            4.64851215206296        2.81251153977771       -4.73013883187662
H            2.55502763287534        3.08371163187567       -2.65543906333620
H            3.09780018258017        0.95701480601888       -1.52637378557712
H            7.11796963709379        2.20679235924413       -1.06029891490311
H            6.60101303846945        4.33562247596797       -2.19773420998470
H            4.22826041843204        5.03877943401911       -0.34553165355117
H            5.21210179742833        5.56853788781237        1.83451197071211
H            6.55764581305348        7.60551283343573        2.11594013420881
H            6.90859777266654        9.11540173266918        0.20734059915560
H            5.91439374159280        8.57980540721092       -1.97361617975821
H            0.93806808515285       10.94576449363242       -8.53782640525786
H            0.10446218002527       10.17791062919266      -10.69468365762717
H           -0.18450606972584        6.27959701482567      -12.95859120191774
H           -0.30709284849527        5.82874546683179      -11.24444057081150
H            1.29861942769386        6.13416089073472      -11.99098175086802
H            1.33558669974064        6.20629897848547       -9.75364726914394
H            2.16472868092530        6.98286187109585       -7.61158036261200
H            3.35768954013280       12.87383407503809       -7.09507795549708
H            2.32094686691708       14.91620598035250       -8.01943636255606
H           -1.52987213477433       13.38533325754232       -7.14113189119545
H           -0.51567937472330       11.33561561737256       -6.20912224913941
H            4.90536980759830       11.00804391246656       -3.14389512591343
H            5.37842442252471       12.89282208408505       -1.64414396125073
H            3.80831446868833       14.78129448471516       -1.51890396738971
H            1.77240451610790       14.77360794551202       -2.89604472509556
H            1.30957115970191       12.89200469080930       -4.39018581746639
H            1.63898946735412        5.41238489355612       -6.23722441507585
H            0.91754298452723        3.69621487380522       -7.80688889279835
