88
 energy: -18.135648508753 gnorm: 0.000920949381 xtb: 6.5.0 (97a52f5)
C            2.10276679928414       -0.91412431421266       -0.58967923179597
O            3.34955268200963       -0.70177889236865        0.03512629682193
C            4.25246951286305       -1.69621284720883       -0.14913643818665
C            5.53825622409038       -1.54380311731312        0.46148838269570
C            6.49046265603625       -2.51184404076757        0.31580924112691
C            6.19000786892537       -3.61685338055713       -0.41932107035845
C            4.11477209806506       -6.67999850968262       -3.23773618598339
C            3.34227379918592       -5.60363318784673       -3.44520664538253
C            2.20077229408155       -4.90377513194975       -2.98414439838084
C            1.51877602446156       -5.30496608273414       -1.81593405309326
C            0.43344002049456       -4.59413279953821       -1.36993726369799
C           -0.00869807578517       -3.47862830415688       -2.06886025823237
C            0.64171948619614       -3.07549266506500       -3.22759105555931
C            1.72992786595677       -3.77331525945018       -3.68454065622764
C            4.52520096816001       -5.75440780054764       -4.42685653715937
C            7.86774067614076       -4.55158359008567       -4.56934456635961
C            8.18866981353179       -5.35942248534435       -5.63673550735276
C            8.21640707078089       -6.71982335400048       -5.44421974271739
C            7.91833390806482       -7.24361289683812       -4.17739285442510
C            7.59205586534604       -6.39188785207915       -3.11186284358280
C            7.56661783495178       -5.03368480579282       -3.31679582127432
N            3.90970073836236       -5.48938724666000       -5.73623351138348
C            4.48524775388929       -6.63596914776637       -5.71161622692143
N            4.59768796540463       -7.58793874465781       -6.65744599203507
C            3.91612279174943       -7.27241118649744       -7.74580196277986
C            3.75428793120548       -8.10284658957941       -8.90662362173487
C            4.40367644620163       -9.39213888014927       -9.10930552946853
C            4.44644303322718      -10.02010838267905      -10.35863639205697
C            5.06189322930097      -11.23128421530208      -10.52431591722168
C            5.67746860679601      -11.88948782231923       -9.45096911758748
O            6.27558142666785      -13.11906022714987       -9.70548334615605
C            6.87407477383543      -13.73051126015823       -8.58568070593856
C            5.64830292651358      -11.25698704018165       -8.20070594921697
C            5.03364226295138      -10.04401908164827       -8.04481764263901
C            2.88240887100236       -7.42405687355638       -9.77449719125415
C            2.38732032847851       -7.90820703974787      -11.08106890104824
C            2.76841668466338       -7.27944206120113      -12.26686523886467
C            2.30361892096998       -7.73053325306414      -13.48078830677712
C            1.44782874281721       -8.81236723951183      -13.53636923746308
C            1.05548416866907       -9.44330955723115      -12.37288728424480
C            1.51827913870350       -8.99788555793196      -11.15615176236624
C            2.53275053320255       -6.17056402326346       -9.17482557193857
C            1.60491015402397       -5.17233725813416       -9.71374088877345
C            1.72929153016835       -3.82380110456725       -9.38901301430391
C            0.86288819710105       -2.88299612444335       -9.89542165083263
C           -0.15694422252549       -3.26804558100657      -10.74082453843554
C           -0.30629553147380       -4.59897981153235      -11.07202080167506
C            0.56178710643502       -5.53870990179587      -10.56498016113324
N            3.18126986126553       -6.12639155673297       -7.99408001978678
B            3.20609735993776       -4.97163012919389       -6.98611146141271
F            1.91381927846079       -4.59385797129175       -6.66927238990488
F            3.94484857209200       -3.92023226389169       -7.50367133745877
C            4.99275880409673       -3.82829064756675       -1.02949694986474
C            4.01312705014574       -2.88474266975142       -0.90794325416127
H            1.45817973296611       -0.06010308116182       -0.37651371743995
H            1.63623034232949       -1.81647750766386       -0.19159968890393
H            2.23643984281501       -0.99466575773972       -1.66949729269917
H            5.73256192860028       -0.65459879099181        1.03341317587962
H            7.46559437383179       -2.41232068683379        0.76996846291443
H            1.86883553512300       -6.16848870024649       -1.27805329941328
H           -0.07916482162569       -4.90253537966321       -0.47360468392121
H           -0.86537375479232       -2.92909730205753       -1.71547102559434
H            0.28463947295679       -2.21788035401327       -3.77353964173014
H            2.22257765262318       -3.49060431904301       -4.59853603002222
H            8.40896929680502       -4.92461630125566       -6.59982431866271
H            8.46330784427092       -7.37932206386978       -6.25869281198174
H            7.93261904540645       -8.30919560380482       -4.02374422662524
H            7.35053001198036       -6.79967563388369       -2.14513490984774
H            7.29044832711639       -4.35523555571718       -2.52530970883428
H            4.00022002511746       -9.53534729801422      -11.20640437510935
H            5.08628112926612      -11.70522708287225      -11.48956067203674
H            7.30092756413066      -14.68396407802329       -8.89993125624838
H            6.12209748907004      -13.91572572034356       -7.81738290627371
H            7.67233174605026      -13.09576883455170       -8.19838073644532
H            6.11725732339333      -11.72439172419629       -7.35435246917420
H            5.03501435740090       -9.56791454476456       -7.08272887613280
H            3.43446213940119       -6.43543014254284      -12.21755100467921
H            2.60691355595337       -7.23744675428516      -14.38965922986615
H            1.08515639537736       -9.16374405729910      -14.48834764512289
H            0.38615792598830      -10.28661497534795      -12.41759677135301
H            1.21532114320445       -9.48587497028819      -10.24590273925277
H            2.51325747632281       -3.52793486362411       -8.71795091273929
H            0.97850832101550       -1.84524137480542       -9.62867092084187
H           -0.83712271841198       -2.53230422569035      -11.13794236505378
H           -1.10457206211570       -4.90336413694108      -11.72904761179347
H            0.43400781174621       -6.57449005949621      -10.82158972571279
H            4.83226936333409       -4.72651787036864       -1.60685923907341
H            3.06314533995760       -3.03758847557213       -1.38299374030725
