41
 energy: -8.495123256590 gnorm: 0.000494022335 xtb: 6.5.0 (97a52f5)
C            1.92761490432934        0.32995948714849       -1.30846444991019
O            1.79963780760773        0.28553165488343        0.09503853991319
C            2.62863569768753        1.15241306730697        0.80247159412087
C            3.49269725422169        2.05582280942675        0.18686831262705
C            4.30900447291277        2.88525448005754        0.91900220307436
C            4.30463447958013        2.85140655758683        2.30888626510828
C            5.18154125712828        3.72556366856032        3.07970503992465
C            5.44805180686942        3.63675953546191        4.42634325706635
C            6.34065574415777        4.67936269904861        4.79501419139651
C            6.86498981709735        5.00898232219128        6.01928236343716
C            6.77347049790361        4.25827276372357        7.24449345542142
C            6.96876081060397        4.90940610698739        8.47094132296246
C            6.90153101499944        4.22212252060591        9.65655535517905
C            6.65148345610499        2.85289860026379        9.67292139645510
C            6.58606387859326        2.15194202245003       10.88341103218772
N            6.53124276118794        1.57097418485558       11.88792390676911
C            6.48133132019584        2.19207285203160        8.45964391716239
C            6.54365417824512        2.87572875054078        7.27146963661583
C            6.58856830260629        5.45589155334357        3.57078102825494
O            7.27663586504103        6.45623154548552        3.48021456697138
N            5.87925011158575        4.81286134448227        2.56499594373743
C            3.44121775229617        1.95452193424701        2.93604571815888
C            2.60068631310948        1.11215218089439        2.22772172785868
O            1.78049577918652        0.27090819708912        2.99499472382904
C            0.80766781288220       -0.44829525767825        2.28450292049218
H            2.95307907596156        0.09131659979453       -1.59435722518989
H            1.63916337896636        1.31598111487206       -1.67540606786179
H            1.25790280488957       -0.41751115524855       -1.73606108649042
H            3.52854260518376        2.10947052868701       -0.88568207755124
H            4.97453276770409        3.56147251736470        0.41331179608052
H            5.00214170948555        2.92731709934143        5.09715689947654
H            7.40128374871275        5.94164511740779        6.06504868349212
H            7.16068347496943        5.96858742798938        8.47489000665220
H            7.04276435538166        4.73643289676131       10.59196369802853
H            6.30835492966691        1.12923035751893        8.46642795791771
H            6.47540580556678        2.33379339962720        6.34625566209265
H            5.82150202516547        5.17329317223696        1.61881670490137
H            3.40319581412257        1.90887392942452        4.00779194988976
H            0.17037087838696       -0.97822472527620        2.99407795814206
H            1.30404108651839       -1.16414891923460        1.62689528337094
H            0.20640244318602        0.24488505773226        1.69342588823226
