50
 energy: -9.678253855594 gnorm: 0.000348054067 xtb: 6.5.0 (97a52f5)
C            1.64165618721395       -0.20493074436142       -0.26907662356305
O            2.67843489371046        0.74514069006734       -0.18484065640736
C            3.22435650803600        0.90809383077966        1.08768694082518
C            4.24719744144126        1.85235676614867        1.23507289652433
C            4.83352107741336        2.08074648265423        2.45204080709822
C            4.42507365005815        1.37914917652314        3.58705143731082
C            5.04641263177952        1.62147941924951        4.89306293158393
C            5.42404729236738        0.65061723537122        5.78867710030236
C            5.94546695860121        1.26186493698897        6.96006167498817
C            6.41240761418272        0.70282266907255        8.12170996111167
C            6.65383222886634       -0.69014553078376        8.39466127072057
C            6.72086061002202       -1.13043406660295        9.72480304761486
C            6.95890937791632       -2.44888078730851       10.02099146195092
C            7.15166856244107       -3.37145365052175        9.00781983748788
N            7.40287727204812       -4.77512312576417        9.32776856090200
O            7.44901638649603       -5.11493461569024       10.52112606082918
O            7.56139775953033       -5.57945531569609        8.39519431742013
C            7.11507236082861       -2.95206590358450        7.68954570307810
C            6.87515698897062       -1.63587563369079        7.38341078799639
C            5.82074690777574        2.71022377371125        6.75702100843850
O            6.10583491780778        3.58362948999698        7.55619684120708
N            5.29680698313176        2.87439868297847        5.46897513534123
C            4.83727245798171        4.17833115892801        4.98557046161154
C            5.94573711913616        5.23453753938047        5.02427704048709
C            7.12811957820415        4.81865217533238        4.15166469746685
C            5.41463221003639        6.61203347578366        4.62566744967778
C            3.41554997105372        0.42480979021465        3.44193203531142
C            2.82581948594339        0.19586456298444        2.22542727034912
H            1.29104981086628       -0.24117218386514       -1.30149186613490
H            0.81365501608212        0.09159763091923        0.37647778392521
H            2.01683878108722       -1.19003323560498        0.01189558366429
H            4.56562512826306        2.39514755546994        0.36286296951138
H            5.63855462010206        2.78843221653607        2.53831198787742
H            5.27573800079968       -0.40194318493591        5.63608681061096
H            6.61033006563586        1.39000869682256        8.92650684544185
H            6.56994329222077       -0.41940744978382       10.51877839211287
H            6.99965665227055       -2.78535398682412       11.04283452262128
H            7.28919230062713       -3.67557991516025        6.91157867612251
H            6.91764276654807       -1.31504762450177        6.35898509483985
H            3.99342333917348        4.48576460229151        5.60908923914262
H            4.44979837016832        4.07418636110196        3.97102548314323
H            6.29876042665579        5.28593523331145        6.06991463184436
H            6.83816402238308        4.78154949210904        3.10223804002482
H            7.49493612868960        3.83013962079546        4.42991475661829
H            7.95641733193069        5.52261469218497        4.23819454580313
H            5.05172256241195        6.60071448500721        3.59812226569386
H            6.19206838179193        7.37375354339901        4.69230390444947
H            4.58644094719584        6.92098531015941        5.26429568654190
H            3.09265372093459       -0.12406523330356        4.30964001149750
H            2.04629290117335       -0.53960910830006        2.14797517697906
