40
 energy: -7.985257158074 gnorm: 0.000923675817 xtb: 6.5.0 (97a52f5)
C            1.64085072379867        0.97707937151613        0.88413539499000
O            1.63805235871831       -0.19208686905322        0.09440359184204
C            2.56582735060833       -1.16603158946722        0.46012616241431
C            3.42404054877227       -1.03026614979055        1.54952459280764
C            4.33399750128037       -2.00780716754895        1.87775146311335
C            4.43438899212220       -3.17399782221980        1.12788599289336
C            5.39657227645004       -4.21156468533962        1.48196125147476
C            5.71115399170245       -5.32334958466817        0.73681533467065
C            6.66347649477589       -6.10701165492730        1.44630488030600
C            7.23497776033881       -7.30914464624444        1.12284157099838
C            7.12739507128325       -8.02443680691687       -0.12684757155148
C            7.35272392201286       -9.40704721345586       -0.15247272601325
C            7.27318761800161      -10.11597421164100       -1.32795802017209
C            6.98173732164074       -9.46653543129986       -2.51142800254725
C            6.77811616597167       -8.10048772385485       -2.51536334536982
C            6.85208730872799       -7.38576170135045       -1.34267879395124
C            6.90513296685357       -5.40508892264744        2.71761416574116
O            7.64137020016086       -5.77658533502521        3.61396007874437
N            6.12519858581167       -4.25641836511763        2.66714362990353
C            3.58192387434160       -3.32065351913484        0.03472174776680
C            2.64942737421962       -2.35898133733674       -0.31764832336490
O            1.85600655803380       -2.65224158354967       -1.43925083969389
C            0.78702392886887       -1.77401641589208       -1.67707208930180
H            2.61945153956631        1.45664311800017        0.83666885210486
H            1.38117936924289        0.73161264130246        1.91473735904339
H            0.89277205182730        1.66349445833255        0.48540259502422
H            3.37899422288925       -0.14217380668290        2.15262231837574
H            4.98718761011868       -1.86797638460271        2.72011224018322
H            5.25426560560646       -5.59159447533017       -0.19667241044353
H            7.82051984627778       -7.77695942731037        1.89562940053929
H            7.57825002923218       -9.91638841330892        0.76859464845114
H            7.43924526413537      -11.18080142771443       -1.32585875892619
H            6.92299067270573      -10.02372825815408       -3.43195034098291
H            6.57073746876322       -7.59182664418239       -3.44258843246956
H            6.75493381215123       -6.31583101088244       -1.36701631061232
H            6.04938895903068       -3.60948453511680        3.44425852923539
H            3.62676337819514       -4.21189898118910       -0.56151257729485
H            0.18126611805830       -2.16348471907898       -2.49647101761158
H            1.18155455786926       -0.79290560999967       -1.94594485571590
H            0.17677059982465       -1.69337715910586       -0.77609138460192
