66
 energy: -12.633047989904 gnorm: 0.000818360300 xtb: 6.5.0 (97a52f5)
C            0.66555691700621       -0.52204557462159        0.07571397331555
O            1.87829927922847        0.09687289645048       -0.29318332342386
C            2.64800926371445        0.53792587233449        0.76396639807092
C            3.87590439532336        1.15979237616807        0.46337749708220
C            4.69735640245368        1.62353430017797        1.44920527528535
C            4.34635906360959        1.49653724567100        2.80533440936552
C            5.23496817738700        1.99085770809775        3.87517552918810
C            5.83309808011642        1.11410135335827        4.81697171315689
C            5.81825344053425       -0.30885122631940        4.92560840478484
C            5.13958641388603       -1.28309821613889        4.03615128382936
C            6.58768836114709       -0.64512623817101        6.02655266683527
C            7.10381276150887        0.53125832502094        6.60235995333192
C            8.02266934809547        0.64820188530235        7.74992787693439
N            6.65089527778990        1.54279161678822        5.85184699476392
B            7.05417189606469        3.00477921896147        6.07694312629607
F            6.60863800260912        3.41679094195803        7.32674411538454
F            8.43400373377850        3.12444280344309        5.96735052104178
N            6.38252199934227        3.85498085105065        4.99219321630365
C            6.52000341975080        5.20548013279089        4.93522655333325
C            7.32584194226761        5.97486411209090        5.80934139251770
C            7.45226120774566        7.32364295326903        5.75250805805301
C            8.26448053369685        8.11577248247820        6.62607363638305
C            8.31162472124546        9.51140465345216        6.45919835185889
C            9.07614513804935       10.29752317897432        7.27328858585197
C            9.84670169651391        9.73884844362785        8.31252305498738
N           10.62104177491257       10.53211198234357        9.13776671796632
C           10.67452890445466       11.98791035437662        8.98394818201839
C           11.43216466551849        9.96470618339922       10.21754112404827
C            9.79789698330818        8.34011744096953        8.47821749401530
C            9.03301272023972        7.55551910965259        7.66248123503423
C            5.69327457386403        5.62897990053265        3.85627029179314
C            5.08168186679589        4.52941321092549        3.30507632179323
C            4.11845846283656        4.57593879623025        2.17809595272968
C            5.54346876990667        3.36821139347899        4.02167806047027
C            3.12021272959778        0.87636690452933        3.10772754837299
C            2.29673395123811        0.41203603892754        2.12268822017355
H            0.14233749199440       -0.83045696132618       -0.83050941449662
H            0.03742145838758        0.18317870980530        0.62197354457081
H            0.86722534156373       -1.40532154115841        0.68357598174712
H            4.15282155125628        1.25860490467494       -0.57104667569790
H            5.63824241926329        2.08335370409374        1.20106110289672
H            5.19574345843032       -0.96811612665826        2.99413787048678
H            4.08903706910891       -1.39148797526348        4.30575616674270
H            5.60515572426487       -2.26642728012874        4.10864742817164
H            6.78049012337849       -1.64570634400935        6.37401824563319
H            7.80990898031533       -0.11022677844733        8.50270406385048
H            9.05710553281691        0.53244632638234        7.42841352255259
H            7.92380001004814        1.62819279518936        8.21569211633471
H            7.86279234774469        5.42288577683027        6.55702823875800
H            6.90252877208787        7.84837026753153        4.99193514505604
H            7.73095640894431        9.95940412707827        5.67116696010076
H            9.09365724276441       11.36142574429760        7.11951651865325
H            9.67629361727621       12.41000224546474        9.08136072435872
H           11.07702341501605       12.24426611728432        8.00593442295366
H           11.30845589816291       12.44234205477579        9.74221183527581
H           12.14773976841449        9.25259031389459        9.81127598385207
H           10.79208885723752        9.45750146336023       10.93680001922705
H           11.98716280755834       10.73848279935843       10.74343864949749
H           10.37421096993375        7.88464731964942        9.26324731246901
H            9.01960246475732        6.49176269312676        7.81667041076399
H            5.54906477430083        6.64593642476802        3.53619341277550
H            3.63998734502638        5.55377460269731        2.11543877852505
H            3.33136898032870        3.83232378577316        2.30295511251770
H            4.62009389890471        4.38908285417647        1.22849502463357
H            2.83401288370455        0.78411035089786        4.14124310894931
H            1.36707351147415       -0.05556578571852        2.39029397588754
