35
 energy: -7.555510114385 gnorm: 0.000973282165 xtb: 6.5.0 (97a52f5)
C            0.99362673022257        0.13835700559321        0.23218744181913
C            2.45645894906584       -0.08047730426938        0.02557977672599
O            2.83531368056523       -1.04447219900867       -0.60136720796656
N            3.31642284309346        0.85803304813397        0.60566291204210
C            4.71838282103477        0.93512378165661        0.58835803310626
C            5.35907844193159        1.40679312480709        1.72577965858463
C            6.73282073104258        1.48220103718538        1.81575932003606
C            7.55712047672329        1.10926989479551        0.76349587519425
C            6.94257656817192        0.67834583955632       -0.44817357128687
C            7.73236606610146        0.35417066240359       -1.58402249411941
C            7.12457863968894       -0.01128762570830       -2.76252355535068
C            5.74282114449251       -0.06330279342403       -2.86356975596246
C            4.96462730393150        0.23827342851401       -1.78137542074327
C            5.52770951767257        0.59440357800867       -0.54589572198574
C            9.19501781116741        0.42361933778445       -1.52041558572016
O            9.88028028877073        0.15416094515228       -2.49232146500006
C            9.80831808845470        0.82846399471373       -0.25029241138748
C           11.19286514413563        0.87783909193457       -0.15636477902120
C           11.80870402108757        1.24632686005413        1.01366701692645
C           11.04278061756071        1.57266581034906        2.11699847480649
C            9.67161644709935        1.53149583204457        2.04397825345815
C            9.01515742247206        1.16338197965577        0.86410156362748
H            0.42162741456439       -0.59421561898204       -0.33555811446300
H            0.69714684882448        1.13252652418388       -0.10041223141599
H            0.72975217791077        0.03220628493446        1.28360029896429
H            2.86582924978686        1.48174288249677        1.26787332633538
H            4.75691153512630        1.69062233346652        2.57101750448039
H            7.16552844966698        1.84235185164494        2.73067401315968
H            7.74397068066321       -0.24810893134957       -3.61053000033592
H            5.28377191102811       -0.34397451919011       -3.79722278529889
H            3.89464973286277        0.19731950995310       -1.86720025689603
H           11.77521007184870        0.61877821845286       -1.02394865259532
H           12.88416997973088        1.27959130911534        1.07301142359758
H           11.52432337722473        1.85899012932480        3.03755994655566
H            9.10104481627538        1.78191469601643        2.91917917012925
