127
 energy: -23.308313429242 gnorm: 0.000787282374 xtb: 6.5.0 (97a52f5)
C           -0.16515833245590       -0.09944275924359        0.24793890363598
O            1.20059794185453       -0.36211938561742        0.01206921278155
C            1.99527417874461        0.75724842065055       -0.08290226965692
C            3.37581104668786        0.56307790813956       -0.30140253715779
C            4.23293550229939        1.61822843766073       -0.40592498739161
C            3.76920460023376        2.94316392718084       -0.30219112641145
C            4.69806899196132        4.08760475037829       -0.40935170299922
C            5.67618310762747        4.35344663915164        0.58117549551602
C            5.94673336317360        3.70427917372458        1.83602305179360
C            5.25445868878666        2.52522136194660        2.41034233116147
C            6.99203209441976        4.37056565043707        2.42686884448470
C            7.38087965372004        5.46250302064804        1.59888277947044
C            8.42281488057423        6.41898504229695        1.78986417187756
C            9.03482845793597        6.72453135707305        2.96461443272446
C            8.57681033976503        6.35288814644268        4.29614204158864
C            7.21517311954662        6.32194860053632        4.61923701603169
C            6.79516174537192        5.97760793671081        5.87934458204717
C            7.71793362872119        5.64905031844905        6.86410191407245
C            7.25508830310414        5.23166522761013        8.22479148408489
O            6.96530598218230        6.10481901207433        9.02802538631162
O            7.17028998660229        3.88798555465783        8.52952072644549
C            7.48322364669443        3.00269557104723        7.44411488251097
C            6.32019462756331        2.86764957968537        6.41388351809221
C            6.00205902098202        1.33995619070111        6.40104055740416
C            7.21096948389786        0.64226629635493        5.69104726785302
C            8.37034664981965        0.76389462957666        6.72405106591168
C            7.72256463982767        1.51811841352348        7.94252032424061
C            8.47791541420871        1.41145205071083        9.25557281340435
C            6.22294486905093        0.93699590056461        7.93187542089665
C            5.27580938475977        1.66157120636355        8.89481602195170
C            6.13709575791185       -0.57467009396450        8.17615893020281
C            9.07433040249012        5.71951079148341        6.56945664386933
C            9.49780293234974        6.07098975480131        5.31140488496228
N            6.56969415608425        5.39577781797775        0.51004028891771
B            6.60069785294187        6.42862390569759       -0.62373482679149
F            6.31901030575951        7.68651976273986       -0.10521472054492
F            7.84593077883528        6.40391899954572       -1.23885604298483
N            5.51759065281475        6.05163755526205       -1.64235120163226
C            5.30265042731064        6.74622615365263       -2.79016201086510
C            6.03874967701235        7.88641209183367       -3.20755951230401
C            5.78067782357564        8.58517822677891       -4.33473868584266
C            6.53078279019166        9.72507263968507       -4.80520717596823
C            6.08279773385257       10.42862246888008       -5.92876819720195
C            6.78057065989194       11.50842727126958       -6.41098997402654
C            7.95364495994420       11.92436756141121       -5.79709567781737
C            8.71237010080381       13.08185188420684       -6.33667378322246
O            8.20078056258554       13.77193826432161       -7.19868375717506
O            9.96512950285338       13.25172937371451       -5.79239532114458
C           10.79600936568777       14.32472390976732       -6.28635507837207
C           10.12392220924852       15.66382477445733       -6.71863142674663
C           10.73318988338797       15.94604278253564       -8.13446603688616
C           10.09367232975836       14.90776464949074       -9.11550159368667
C           10.73937253658025       13.55347476696154       -8.69483322836494
C           11.70708789702642       13.93379845983319       -7.52041153385255
C           12.77615906843512       12.90070901687204       -7.20659921174803
C           12.22507028023631       15.38819133619594       -7.98875860594628
C           13.00017005509493       15.36915173402163       -9.31269005560608
C           13.05275161339895       16.13953440275475       -6.93780263948600
C            8.40893431628964       11.23309337811093       -4.68224256403451
C            7.71252794137529       10.15524845251497       -4.19099358625993
C            4.23737774761492        6.07314850229231       -3.45251079120663
C            3.85261308199471        4.99231925670652       -2.69596011099314
C            2.78664295614061        4.03064699188004       -3.06794171401246
C            4.66535729241670        4.98184091274763       -1.50829687858020
C            2.39233393021333        3.14056730674354       -0.08493444886418
C            1.53276683350456        2.08661606106750        0.02285010793526
H           -0.69773687880504       -1.04979077485118        0.30457654043255
H           -0.57912366665626        0.48718548698363       -0.57321683773514
H           -0.28487197935233        0.42957716006539        1.19440575399266
H            3.73758172428356       -0.44638931794506       -0.38391279277240
H            5.28189132294967        1.45160262498223       -0.58041821960014
H            5.65357714022367        1.59870255360964        1.99635265778588
H            4.18453387652173        2.55990398061145        2.20477968154576
H            5.37845033526251        2.48864198048689        3.49267581918874
H            7.45160570716970        4.10388471301449        3.36171136896857
H            8.76085726778329        6.90842709031210        0.89125673868131
H            9.92351980611882        7.33532111272915        2.92581937191871
H            6.49485901838885        6.58037423062440        3.86255850041249
H            5.74578146158918        5.95391491755097        6.11745748196948
H            8.40648980716442        3.36100583051689        6.97122260741565
H            6.61377507382756        3.22295747122554        5.42249624481636
H            5.45579374678151        3.45701427734261        6.72924265873207
H            5.00850989469583        1.06942087413800        6.01570087945924
H            7.45317077992434        1.14915091973356        4.75121441750125
H            6.98296903287975       -0.39897823078339        5.44023937830107
H            9.21791297583333        1.33112170511010        6.32746841905926
H            8.75909873841427       -0.21044808170899        7.03436469237320
H            9.48156724931763        1.82222820819818        9.15383486881454
H            8.56543993347296        0.37407170571285        9.57555829533277
H            7.96577638673950        1.97081641449234       10.03712097140837
H            5.36611435506070        2.74262213850916        8.81576810766738
H            5.49567454997169        1.39122420249433        9.92676183113159
H            4.23987106340500        1.39345400062081        8.69096364388231
H            6.80932362615479       -1.13639634143832        7.53184390573702
H            5.12547856482947       -0.93420530364513        7.99146592241796
H            6.39261926775551       -0.81359001661402        9.20763902042169
H            9.78834594521424        5.48998850360162        7.34169550315170
H           10.54965753759168        6.11601524852973        5.08748224679614
H            6.84392245957555        8.18981726628511       -2.56554522635417
H            4.94752968234164        8.27455514015303       -4.93931381552976
H            5.17626175689232       10.11349426111027       -6.41635036978532
H            6.43051524028281       12.04642848763473       -7.27507013439319
H           11.47077724887274       14.51833561218514       -5.43900141525775
H           10.32283380014463       16.47926570978466       -6.01633191230069
H            9.04061982716296       15.54917048184705       -6.77342060302739
H           10.68814531267810       16.99365137786585       -8.46454804783593
H           10.29667342822724       15.16214644706305      -10.16114053631613
H            9.00540147569508       14.88550328705252       -8.99753480107965
H           11.28631407922479       13.07512139868536       -9.51282938761907
H            9.99264891139234       12.83372756951144       -8.34921464237320
H           12.31767173866337       11.96724144522823       -6.88248047794639
H           13.43218029843680       13.24740570895299       -6.40955899374620
H           13.38740189395094       12.69208811040385       -8.08361877837046
H           12.47680433981545       14.82176300098060      -10.09308421943568
H           13.97520926411856       14.90183485038881       -9.18055935869840
H           13.16305331173341       16.38374747040771       -9.67443557872746
H           12.54513839566646       16.21317827527143       -5.97925816160008
H           13.26112706589181       17.15477169504161       -7.27344823477106
H           14.00741853260207       15.64223367695247       -6.77154995981121
H            9.32187198336529       11.55538683635126       -4.21185623212537
H            8.08965536193186        9.62859281621502       -3.33292398569893
H            3.81368991983752        6.34794189690803       -4.40240985714634
H            2.58405134015973        4.06779248058517       -4.13850489157018
H            1.85776465103833        4.25721143816625       -2.54482557186911
H            3.07725791423581        3.00935079393889       -2.82236262068844
H            2.02838358928920        4.14909398597126        0.00967659186753
H            0.48875207887651        2.27431989115218        0.19392945640363
