87
 energy: -16.087157720658 gnorm: 0.000374345112 xtb: 6.5.0 (97a52f5)
C           -1.87516079008949       -4.64977925084142        0.45195319091851
O           -0.58876461991216       -4.22862175479368        0.84836713469218
C            0.39468067781387       -4.42036033661620       -0.09048389777085
C            1.69632467966490       -3.97425290963652        0.22838505622260
C            2.72446047083353       -4.10180521808665       -0.65588101264874
C            2.52774652105969       -4.68454789744308       -1.92304672447983
C            3.64109966937530       -4.76127577447157       -2.89115384245686
C            3.67838894141327       -3.95382769889447       -4.05848793431802
C            2.73260431184106       -3.00062007864846       -4.58187509590139
C            1.37669461240452       -2.68968729492871       -4.06761131047340
C            3.32251471828891       -2.37217058380118       -5.65238505139218
C            4.64208217346388       -2.87993065265658       -5.81981943829539
C            5.69273420655071       -2.36486329953436       -6.62128646075255
C            5.57508011932147       -1.26737400322089       -7.40858570019471
C            6.68091151449527       -0.50980275226062       -7.94190062829687
C            6.44075442611939        0.76492049606626       -8.47127813114860
C            7.47984100517604        1.61176411110310       -8.76517546336004
C            8.79510971648436        1.21460769928296       -8.55971377232961
C            9.89252987962247        2.21282113745467       -8.64439049078494
O           11.04322897001927        1.86059053490639       -8.83770582070569
O            9.49226129209385        3.50485771294947       -8.41573018509503
C           10.59419539841643        4.37128218366805       -8.18590365147913
C           11.35388192361862        4.03067543272472       -6.86425441914303
C           11.21413609361819        5.32492379222806       -6.00156726881035
C           12.13723881095589        6.39985157455927       -6.66672696489702
C           11.40086286390976        6.75171600775247       -7.99319945104768
C           10.10502923001798        5.86281070050448       -7.96380697541471
C            8.98859979373139        6.30154501996719       -8.89488033848388
C            9.75247133434133        5.83971509307646       -6.39283104794854
C            9.41844618470656        7.21838954643048       -5.80990241056980
C            8.64069825702171        4.85295277419931       -6.01639320544355
C            9.04850384184189       -0.07708694970817       -8.11450263138077
C            8.01271635491006       -0.92659772962200       -7.80945049438219
N            4.79188345566537       -3.83228547125239       -4.85603099380280
B            6.10899415749315       -4.59002268371574       -4.64535163136390
F            6.36837552573942       -5.37735531450019       -5.75966312283985
F            7.13673135436523       -3.68350796159363       -4.41775619958785
N            5.95125667680939       -5.48596668201088       -3.41217001951707
C            6.91528398966156       -6.29608046098204       -2.95322690638041
C            8.25344504255976       -6.47621579876202       -3.54593784286099
C            6.39120276279771       -6.91865509820370       -1.80580873930067
C            5.09613125944417       -6.46731314493645       -1.59710631629914
C            4.20896405400901       -6.89939704878782       -0.49004418352437
C            4.80450712150459       -5.52628148834926       -2.62646176550384
C            1.23657289820195       -5.15147029551860       -2.23628527990045
C            0.20399363668585       -5.02461981175177       -1.35401634462515
H           -2.57711461991197       -4.42518671570083        1.25631553826277
H           -1.87667993949552       -5.72582308119050        0.27257809706883
H           -2.18386753518251       -4.11088444673228       -0.44515820593883
H            1.85342134308182       -3.51686787027729        1.18887196603973
H            3.70498656848450       -3.73555557941157       -0.40510569104228
H            1.38842641679183       -2.56132540836193       -2.98523275781515
H            0.67412751361877       -3.48594588824067       -4.31317425704713
H            0.99634583860780       -1.76577629182917       -4.50431160273133
H            2.87503312896169       -1.58295315816263       -6.23047632617603
H            6.66098704228135       -2.80009424166999       -6.46091135050654
H            4.59757497243050       -0.83461133443253       -7.52457723809367
H            5.42474970588501        1.10207501038391       -8.58550020924430
H            7.28813887400423        2.61490507560881       -9.10548127783906
H           11.24896483327836        4.31009841728172       -9.06684001261555
H           12.40334494567925        3.78452007467393       -7.05116275894183
H           10.90168401889241        3.16431088529721       -6.37518550705261
H           11.35439509924049        5.18643796243681       -4.91990786619482
H           13.13608770661891        5.99192357167656       -6.85290095412949
H           12.26697891557386        7.27231910910174       -6.01777779146941
H           12.00550636113711        6.51703676230264       -8.87435858932737
H           11.14122463580993        7.81236700682078       -8.05944870898004
H            9.32565292941931        6.28579970367632       -9.93047153839483
H            8.65551821019865        7.31157429806982       -8.66034342456066
H            8.13524912359654        5.63035217790559       -8.81077980821023
H            8.45529861274021        7.56894109650427       -6.17850247903454
H           10.16255641654417        7.96823840440901       -6.06760321339578
H            9.36092003230197        7.16905633253304       -4.72314171370447
H            8.58011181669513        4.73487914692487       -4.93520247097306
H            8.80467556658494        3.86972002167026       -6.45036093699507
H            7.67382739006332        5.20855871741599       -6.36978056830671
H           10.06965893704210       -0.38037856629138       -7.95924584891128
H            8.22937413782124       -1.90688583727048       -7.42449615285514
H            8.35092387624495       -5.87423243508837       -4.44967990653615
H            8.42399361895195       -7.51914585783687       -3.81327452612082
H            9.03267849603195       -6.16850074035435       -2.84861048139226
H            6.91153963986545       -7.63461272208124       -1.19301376913035
H            4.50928551942011       -7.87554365693472       -0.10821916262464
H            3.17462170793737       -6.97860884963855       -0.82485230550194
H            4.24652998333888       -6.19080979153184        0.33753051723041
H            1.07863266337618       -5.61904660429315       -3.19271631740634
H           -0.76962902278343       -5.38807306863895       -1.62653660640971
