54
 energy: -10.260202643766 gnorm: 0.000440870956 xtb: 6.5.0 (97a52f5)
C            0.59631519521041       -0.33883662018177        0.63272278044546
O            1.63431103015212       -1.18797782516673        1.06845615863450
C            2.42262725924173       -1.69492789442192        0.06937986434956
C            3.48340582452672       -2.55144635647368        0.44156724042840
C            4.31559623849070       -3.09667693200140       -0.48904563612344
C            4.15431090306656       -2.82676185158138       -1.86209485864905
C            5.04935436939337       -3.40029305451442       -2.86175917447380
C            5.47192424272619       -2.66630589186332       -4.00287442461943
C            5.25137795652888       -1.33515516402611       -4.36658620515864
C            5.92953844845646       -1.08944420183969       -5.57260527520504
C            5.94786951632050        0.16188632889577       -6.27293077995424
C            6.58827084710330        0.37817839261233       -7.42977703811811
C            6.56067833847894        1.67629500503810       -8.09356387781029
O            5.95883561029901        2.60634043740152       -7.58346322300954
O            7.24200336110402        1.73377223476628       -9.28361793651511
C            7.20455928522645        3.02716304277638       -9.94478497844027
C            5.75537244980353        3.40485711025978      -10.27883248575015
C            7.85502710809633        4.09211566886902       -9.05226205367088
C            8.00826956520413        2.89618760996015      -11.24774870747948
C            6.59026580768029       -2.29008680799262       -5.94193893480280
N            6.30828601176252       -3.18390402172789       -5.00152083311608
B            6.89658489324991       -4.59840529790647       -4.97425451738395
F            6.45072189668375       -5.29917789282470       -6.08436128636729
F            8.28016991523086       -4.51529843449513       -4.94287192759012
N            6.40278882052679       -5.30019375980187       -3.70363713216695
C            6.68702578872755       -6.57051529096102       -3.40455407918971
C            5.99136785930405       -6.87140246564787       -2.22413806391739
C            5.28744347738961       -5.74897790002495       -1.83161599275155
C            5.54928529526968       -4.71816085446000       -2.76611322988863
C            3.09555927043497       -1.97461648363397       -2.23442965986609
C            2.25836141600937       -1.42735113648747       -1.30862771351087
H            0.03626693246994       -0.00382981080514        1.50693717710090
H           -0.07704644444384       -0.88429184037375       -0.03013232984643
H            1.01652228907977        0.53151676242400        0.12636491789346
H            3.62201924233932       -2.75548551597678        1.48838754030006
H            5.14221605200006       -3.70846171533423       -0.17383513607619
H            4.69778649310422       -0.60388682841128       -3.80553134557199
H            5.40458116847476        0.98248119311254       -5.83863306325627
H            7.13860664967963       -0.41183280501133       -7.90345736121941
H            5.16754682950272        3.49842705042750       -9.36777287009041
H            5.29564960803902        2.63456986958754      -10.89513125124063
H            5.70820838457877        4.35110013200060      -10.81550073793103
H            7.30350725018252        4.19441863078107       -8.11969379056333
H            7.87518942249008        5.06215497326188       -9.54648519463760
H            8.87655548203429        3.80796671567075       -8.80683672721254
H            7.57408391864430        2.12682016356548      -11.88344173416757
H            9.03488547641031        2.60722823708974      -11.03087058126335
H            8.02243697505186        3.83425540876702      -11.80053289692314
H            7.22171942208963       -2.46861246104843       -6.79499322898182
H            7.31634982129396       -7.21940513918250       -3.99171422163889
H            5.99225412590671       -7.82478607846048       -1.72009242472132
H            4.61925532508727       -5.68806484644607       -0.98990899749970
H            2.92403723304050       -1.79192998461047       -3.28061171569030
H            1.45839034124235       -0.78807180357416       -1.63398004508615
