64
 energy: -10.450467117337 gnorm: 0.000461293039 xtb: 6.5.0 (97a52f5)
C            1.94691157949586        1.76624817338791        1.70458860797634
O            3.17733455067058        1.25244661987260        1.24930765041026
C            3.39074013578860        1.37033323509573       -0.12527990004804
C            2.49338387262670        1.95675507691240       -1.02461386129392
C            2.78274096454947        2.02031442227977       -2.35950712289342
C            3.98489655222182        1.50562355241427       -2.88105092212708
C            4.25742940417493        1.57554012520275       -4.33892583499217
C            4.48292569831559        2.88343731868123       -4.92131217191254
C            4.45544911092074        4.02410438023142       -4.09216060574595
C            4.64351943844033        5.28643092004290       -4.58595696578253
C            4.88168336533003        5.50150361819679       -5.94865481794181
N            5.05565090512963        6.79290001804647       -6.46621496882393
C            4.98152126296433        7.97682392186035       -5.60987422065154
C            5.27973711975842        7.01995414671855       -7.89420003785322
C            4.93734658722837        4.37303207416411       -6.77812885175465
C            4.75016254101402        3.11130838984116       -6.28383060170186
Si           4.94230699092600        1.71360738658971       -7.46486451083546
C            3.69959315905898        1.87445861878141       -8.86049045134618
C            6.70740542864357        1.63605801153842       -8.09416394861377
C            4.56436158475518        0.22445352477778       -6.45322945486048
C            4.54298258527064       -0.97974904554859       -7.10179803650034
C            4.19904623047269       -2.16476687186935       -6.43692543068185
N            4.16914003858362       -3.39339820075853       -7.11170525057111
C            3.78090962422874       -4.63017767090578       -6.43345744524990
C            4.51357495230384       -3.49523789397512       -8.53007779399161
C            3.87625561990338       -2.06927952272657       -5.07801160842489
C            3.90236640914889       -0.86500541999229       -4.42870174635903
C            4.25573291253684        0.33239272316286       -5.08498492791174
C            4.91018171555842        0.92627453281894       -1.97320962747355
C            6.21699635510399        0.39036107229083       -2.44145443463761
C            4.59172045783384        0.86385022128272       -0.63687733206992
H            1.88510927090062        1.61088087145699        2.78251972007420
H            1.12271299305215        1.23833911714054        1.22294256133077
H            1.89155019806244        2.83580073249954        1.49724729077318
H            1.56384539428394        2.35865448751719       -0.66544049968535
H            2.07695436749234        2.46053941086618       -3.04251673211936
H            4.28449190555846        3.89540902688515       -3.03867103724445
H            4.60627761833774        6.12834807781127       -3.91849381415107
H            5.74495594982620        7.92493238057209       -4.83669098310047
H            4.00080598081927        8.03580559522989       -5.14275498912655
H            5.14065861975669        8.88695367359058       -6.18327705971133
H            6.19339933551302        6.52178682119358       -8.21103751850895
H            5.37687867075642        8.08077246724117       -8.11267045448591
H            4.44153635328261        6.63045814613785       -8.46788926618309
H            5.13567514127406        4.49430154163896       -7.82730436037597
H            3.88126310486798        2.78361350797117       -9.42548166832458
H            2.69376337123566        1.90982356466250       -8.45259142599336
H            3.77626730181824        1.02462392842315       -9.53190491395351
H            6.95229512376660        2.54149679573543       -8.64109080342241
H            6.83469028692488        0.78322565213287       -8.75398822015471
H            7.39166304003600        1.53655586955527       -7.25690337240333
H            4.78636043565021       -1.00910986598485       -8.14810473944157
H            4.47031314275459       -4.83930038081305       -5.61836111397323
H            3.79654805768444       -5.47499537353665       -7.11795208678558
H            2.77314760428539       -4.53455469399067       -6.03505553681109
H            5.52510405306797       -3.13020757272621       -8.69410502588210
H            3.81871527644889       -2.90550424892238       -9.12399840215248
H            4.46540726966480       -4.52596828719537       -8.87312782786009
H            3.60206142642940       -2.95751401593778       -4.53805525838966
H            3.63637831844399       -0.82493204550927       -3.38766726519130
H            6.46750453499889        0.76551589601974       -3.43355268002049
H            6.19587392392875       -0.69847545018473       -2.48831192604871
H            7.02170202753143        0.68374233728868       -1.76708071776340
H            5.28294274851717        0.41452457486445        0.05204675167392
