41
 energy: -7.951816787267 gnorm: 0.000981138170 xtb: 6.5.0 (97a52f5)
C            1.04488144610712       -0.40701316852501       -0.01531155587096
O            2.07283218969831        0.25378973961513       -0.71841486350994
C            2.77862714550789        1.16496421934861        0.01867475255062
C            3.80203895337593        1.88827026607689       -0.63796449253699
C            4.53982855962642        2.82656381161413        0.01745122319441
C            4.31764318600630        3.11352611896434        1.37866149384257
C            5.09054301300780        4.13885368241193        2.07450103406476
C            5.50798352982603        3.98974288179067        3.41945610445663
C            5.39762514073321        2.90058872231952        4.31045513088237
C            6.01094854162853        3.25480073242151        5.50102877221792
C            6.52279955890165        4.55810806424583        5.37375095789852
C            7.27153931577530        5.34985267719674        6.36780482017633
N            6.21630986137707        4.96018137639517        4.12776561979808
B            6.64966744411566        6.30797200001274        3.54116997683382
F            6.05481598486897        7.33373155071692        4.26292051559132
F            8.03423716809664        6.40060656511961        3.57629135314456
N            6.17487672237691        6.37210842042178        2.08552599489108
C            6.33939450669281        7.44724959110815        1.29380314586927
C            7.03313378443420        8.69475554741277        1.66170952509069
C            5.69369273819922        7.14505605559401        0.08310257090318
C            5.14795496159522        5.87542829466200        0.17641787585201
C            5.45740388528888        5.35690356740275        1.45258626032644
C            3.30892427425834        2.38372658967717        2.03881807437922
C            2.56399718464458        1.44565221626905        1.38894482091156
H            0.53766479172483       -1.08623771206390       -0.70218028299297
H            0.32241618189566        0.32068660869767        0.35756121910184
H            1.46870400796686       -0.98670672295729        0.80615633883950
H            3.98293280396881        1.67513988201365       -1.67628189411534
H            5.33652103095711        3.33498860768103       -0.49640808173604
H            4.95645683775285        1.94390087854278        4.08982111007990
H            6.10134519846953        2.63377161086944        6.37676531690331
H            7.39563797689890        4.80027623234731        7.30105917641281
H            8.25980818722314        5.60424632266655        5.98417428079570
H            6.74787063068334        6.28124366926475        6.58424242430709
H            7.46651985579056        8.60565618197793        2.65826906224793
H            6.34081324031136        9.53672062881281        1.66782697829496
H            7.83731157386693        8.91516845052817        0.95969754464271
H            5.62192970226467        7.80584469352038       -0.76479344691202
H            4.54830169606352        5.39312357979614       -0.57612016298921
H            3.09815302824737        2.61114474524259        3.06887031762955
H            1.79734415977255        0.91739282078793        1.92506098853343
