111
 energy: -21.000983945477 gnorm: 0.000909518765 xtb: 6.5.0 (97a52f5)
C            1.97414838407642       -0.45505776131092        0.58474966477117
O            3.07645035234256        0.42412270909027        0.59022772828594
C            3.75022829205201        0.50502446186206        1.79521244220727
C            4.85677056400989        1.37001070961877        1.86647266738565
C            5.57575141843317        1.51121196837618        3.01805907894110
C            5.24005719039044        0.79346606810479        4.17979603129509
C            6.00663657969783        0.94256947240335        5.41343540497999
C            6.49894512006435        2.20049120486866        5.84764237761548
C            6.30887510834313        3.48280459479293        5.28367432503206
C            6.96096560500798        4.39335804658684        6.11689966758695
C            7.54796919624956        3.69280734767198        7.21427678212949
O            8.18994759195006        4.57623842072994        8.05539959234717
C            8.01214631445083        5.84174588059436        7.51000454653139
C            8.45407542489812        7.08882922377532        7.95436141104470
C            8.15467276731740        8.23599830081322        7.24762566704109
C            7.37476304830226        8.16575268414136        6.06400263727992
C            6.95281377015510        6.93341146653488        5.60121403615661
C            7.25825052436324        5.78212015673678        6.31653796215942
C            7.02035649917864        9.42717950077177        5.28877985378939
C            5.64701298539210        9.37030485227460        4.57192483594362
C            4.51873665395995        9.17977040696023        5.58653861729334
C            4.44947935948818       10.32134470847729        6.64044367344065
C            3.51624653007883        9.88171041369687        7.77894224128324
C            3.92325375660557       11.62735598975950        6.04109010933303
O            3.22812384009411       11.72313458068886        5.06749935041575
C            4.46222023619901       12.75940725574179        6.88184435425727
C            5.64480206147327       12.19735645959467        7.70670682411194
C            5.86289289200996       10.73193900267811        7.22843521973544
C            7.04500858760644       10.68896150407500        6.20067793734689
C            8.42034244438532       10.77156352860596        6.90129216690366
C            8.69698696184807        9.53967627124136        7.77944004796887
N            7.23611152183739        2.37910083674433        7.01022719558781
B            7.58994160326852        1.25481900554342        7.98800448768402
F            7.01526842208077        1.52556060808973        9.21798955392331
F            8.96711043027227        1.14409365819361        8.07346074012115
N            7.01346677673773       -0.05479323660555        7.44270469595240
C            6.30359455213927       -0.16093849310097        6.25450060512099
C            6.02665857142073       -1.53437674973933        6.06555083450384
C            6.56006884679416       -2.21138979389583        7.16363587183802
C            6.73555993037869       -3.50168220351394        7.76514375287936
C            6.35045501989950       -4.78415344510607        7.39414939446857
C            6.65717009501329       -5.86091665111111        8.20540513447940
C            7.38609557293884       -5.64235803099176        9.40543881991497
C            7.76537850524142       -4.36534773402041        9.76743752738335
C            7.44944155821056       -3.27028426882822        8.96214353195561
O            7.72599646824954       -1.91878583089023        9.12831097315523
C            7.18750257934045       -1.27184486413821        8.03685708800178
C            7.77250017018420       -6.76632811344976       10.33764955363682
C            7.45907004018937       -8.17892623008827        9.81973723018843
C            6.13588953480949       -8.20160588937349        9.04033996406836
C            6.24383890001694       -7.26757039685938        7.79040378644122
C            4.94810078137126       -7.31508977536362        6.91581327526501
C            4.44279361250020       -8.74485263784612        6.59563452245977
C            4.31113180908055       -9.59014284841097        7.88689579968903
C            3.20053672995355       -9.02870379708131        8.79004204263496
C            4.04175750278779      -11.08630501917680        7.68833500706569
O            3.46159885216717      -11.58402629450916        6.76330815462003
C            4.66796815251250      -11.80440344021210        8.87157109851026
C            5.66994687847389      -10.81876899136807        9.53640935470691
C            5.72024259327771       -9.61617407918877        8.56813713418803
C            4.13429505210167       -0.07284189409118        4.10627621951841
C            3.41134926319732       -0.21335553619770        2.95601181059887
H            1.52311707559200       -0.43775475494738       -0.40846657847536
H            1.23270782405975       -0.12718089313832        1.31490327188167
H            2.30685684801864       -1.47077281980657        0.80375717848385
H            5.12733104956495        1.91733299642072        0.98099867534327
H            6.44303498397482        2.14769463668948        3.03310707747689
H            5.72899214519742        3.73192589260011        4.41411322003421
H            9.03750833102798        7.14250199299982        8.85454757618262
H            6.39122776319372        6.84509829309032        4.69072946616604
H            7.80798299387839        9.54525291683662        4.52604171682914
H            5.63195699018203        8.58772069198507        3.80398386787253
H            5.48172482361044       10.31044446882541        4.03162936793030
H            4.64807402357483        8.22600133217355        6.10852257156768
H            3.54997485805724        9.11376552607867        5.07745421241029
H            3.43157851851314       10.65729146444884        8.53837059868811
H            3.88712261255131        8.97837695428107        8.26149655032057
H            2.51669413001973        9.67792267817495        7.39747668372223
H            3.66873612805991       13.15037456057104        7.52695776244028
H            4.77297757989629       13.58027907216742        6.22762080533454
H            5.42523599724747       12.22598109517297        8.78029839735513
H            6.54930766456650       12.79714624657088        7.56396780119873
H            6.10172394331412       10.07163784201468        8.07097587456347
H            6.92169335765849       11.57047240715574        5.55107876746246
H            8.48456125160373       11.68756610145036        7.50067744782761
H            9.20650177003135       10.86288586271670        6.14219797225265
H            8.28241979459662        9.70107901789853        8.78157184102731
H            9.77769285608476        9.42626615743423        7.93254595725811
H            5.54231910800844       -1.99044144427303        5.22181606187071
H            5.82208770124758       -4.91567699777316        6.46943535231256
H            8.30978999968251       -4.19929422148291       10.67831771717712
H            8.84277117872409       -6.67918326125090       10.56303940814659
H            7.25982873523537       -6.60766976334103       11.29385303768133
H            7.42361473609355       -8.90286654922871       10.64317935778138
H            8.26325826357971       -8.52309791261909        9.16014416137298
H            5.35037827221100       -7.79891765754163        9.69298136000940
H            7.06517213317697       -7.66227956919688        7.17367491568430
H            5.12439761451836       -6.78383111372562        5.97307175586103
H            4.16483053432512       -6.74247735689260        7.42134533706567
H            5.12881242547740       -9.24606913096565        5.90554653262503
H            3.47350109325477       -8.71733586445331        6.08568163456230
H            3.16291616403714       -9.56019428456618        9.73933260024210
H            2.23042591876194       -9.14173612874320        8.30810960071717
H            3.34113467063717       -7.97196844642767        9.00511267377139
H            5.16667225551476      -12.71231915516313        8.51855779981104
H            3.88731985758377      -12.12027454973359        9.57055154101047
H            6.65832266879068      -11.26860134402785        9.68535411776451
H            5.32079851087632      -10.48777146288810       10.51959256532072
H            6.43901266787305       -9.88524130657276        7.77777247620282
H            3.83162310369539       -0.60018253752955        4.99394006379184
H            2.56717668718305       -0.87810697278186        2.94182943885104
