53
 energy: -11.352778447727 gnorm: 0.000459419947 xtb: 6.5.0 (97a52f5)
C            1.22185941152598        0.60249592184802       -0.83296400099743
O            2.12853382476293       -0.04331015058325        0.03135564245176
C            2.88737902105080       -1.03872417466206       -0.55456711622671
C            3.79992533492291       -1.72576155805533        0.26501071898906
C            4.58453113102745       -2.72687031288466       -0.22941281787682
C            4.51363238569998       -3.10875144047643       -1.58081988287273
C            5.34650771153312       -4.18535194366584       -2.10922102671777
C            5.94759529381704       -4.11553139679585       -3.39264026086454
C            5.95223371167097       -3.05739165131947       -4.33003106946354
C            6.72943227913702       -3.47569279231756       -5.41191617052221
C            7.22781304350007       -4.78848818177118       -5.15351999303831
O            8.00669375699754       -5.22176680058506       -6.20263420973925
C            8.02010265834563       -4.19588061281069       -7.13656751016109
C            8.66119853318184       -4.11696430197035       -8.37713261840645
C            8.52435743990670       -2.97939632100644       -9.13149445483259
C            7.75853061494396       -1.89953399187395       -8.68454783913583
C            7.11730193663553       -1.94474204439828       -7.47060397285198
C            7.24610869701374       -3.09280165832693       -6.69408657625146
N            6.73478055375557       -5.12566128376147       -3.92661020098842
B            7.07981616785961       -6.42755914628354       -3.20226226227968
F            6.59803783693168       -7.49664422198860       -3.93587115275597
F            8.44961388876786       -6.49847467921790       -3.02446075463689
N            6.39686084646814       -6.40869052404537       -1.83429329819000
C            5.60309116037342       -5.36927150690525       -1.37041778064301
C            5.09330909622944       -5.77514851276185       -0.11595324322523
C            5.61649957518158       -7.04278179580012        0.14478659611897
C            5.63683318284792       -8.12374727597382        1.08705770742644
C            5.03527896156798       -8.32020115986152        2.32682510424208
C            5.26845989098328       -9.50126641007898        2.98818168070737
C            6.09022442742218      -10.48460908853030        2.43126740939257
C            6.68980934327460      -10.30533612590529        1.21046587253917
C            6.47338382769712       -9.11365373679874        0.51100407835903
O            6.95969128198288       -8.70095754545528       -0.72134677177482
C            6.44275219357622       -7.44519249372907       -0.94771188480803
C            3.60424063904948       -2.41656291864862       -2.40072572108999
C            2.81533318006584       -1.41684407212505       -1.90713283735039
H            0.68325694175104        1.35903237631712       -0.26017556303409
H            0.50604792814196       -0.12088293503428       -1.22674711277284
H            1.76587256896676        1.09112408661626       -1.64283002831406
H            3.86731589421493       -1.43595529417906        1.29874602631970
H            5.30418549415712       -3.20781217766191        0.40973107526623
H            5.49609689299827       -2.09059714758196       -4.22107504937360
H            9.25024222858790       -4.94995558251575       -8.71675861603871
H            9.01697519817098       -2.91608805002014      -10.08791247260298
H            7.67075455335193       -1.01992275596578       -9.30073738508230
H            6.52508087912388       -1.11980528444828       -7.11569791171379
H            4.39378183183122       -5.24531202371034        0.50420522365435
H            4.40501118060069       -7.55546842885267        2.74539038271641
H            4.81220041681521       -9.67246683462738        3.94921597129763
H            6.25537387801493      -11.40176047237737        2.97246586813324
H            7.32267824813759      -11.05952103349908        0.77817957155144
H            3.50100802072203       -2.71879201806458       -3.42826826643486
H            2.12503500471911       -0.91840051488814       -2.56271109613360
