43
 energy: -7.868563686430 gnorm: 0.000873548321 xtb: 6.5.0 (97a52f5)
C            1.31474612046156        0.72574133591310       -0.85897440248472
O            1.38660392954079       -0.47043347370903       -0.11949791561058
C            2.32812741367274       -1.39747912920330       -0.57421316549230
C            2.42681155803783       -2.60751436712081        0.12334063912356
C            3.31648231165570       -3.57941405128668       -0.25197670743724
C            4.16276305082314       -3.38703491854527       -1.35429362062618
C            5.11730056481674       -4.37177297624325       -1.81408089188086
C            5.28104736679171       -5.60685438431847       -1.20193534863309
C            6.26240888360951       -6.48283725923070       -1.64146275860979
C            6.53600955014951       -7.74874389585782       -0.99353192020250
C            7.53176745075201       -8.56208935609895       -1.53284696219187
C            7.85690630803716       -9.79440268180635       -0.97807278905505
O            8.87220305388870      -10.52856233234653       -1.60267329667953
C            9.16410342921439      -11.77029713317733       -1.00827264049362
C            7.15403066389518      -10.20938334087509        0.15177382964280
C            6.15151214022260       -9.42541793431999        0.72357088925479
O            5.51172748000858       -9.94279670134550        1.85715733972955
C            4.50728045939421       -9.12441002540888        2.40729246586378
C            5.85231489576058       -8.19732786167549        0.14160472900602
O            7.02799254676270       -6.15262653914149       -2.72499981688779
B            6.47890670560337       -5.15636644525321       -3.64961292995807
F            5.47992705989406       -5.75375610005266       -4.37805649884496
F            7.46507479992091       -4.69010983337232       -4.47693880448255
O            5.89088649850531       -4.04695057030868       -2.89338634618550
C            4.06649927357750       -2.17497648933905       -2.04768325978771
C            3.17473878101422       -1.20416330181607       -1.67244799136352
H            0.54345831763030        1.35555022221378       -0.41309805426810
H            1.03973492567681        0.50544964935503       -1.89176937803071
H            2.27225594528529        1.24628682509182       -0.81068609867779
H            1.77708691363520       -2.75636095340787        0.96788627168681
H            3.36158661268902       -4.49538765217175        0.30867365335282
H            4.67280055859379       -5.86814556770778       -0.36064743541590
H            8.06521970656888       -8.22945956740297       -2.40454345754597
H            9.96353437036222      -12.24132455746048       -1.58282843877872
H            8.28025107601974      -12.40967168409133       -1.03580343758445
H            9.50406302503012      -11.61730897287835        0.01726606373105
H            7.36899755358540      -11.15355807577049        0.61285349844212
H            4.09292479117976       -9.63549382889146        3.27790558113689
H            3.71391760601537       -8.97015279916491        1.67396661924204
H            4.93804839163551       -8.17318509129902        2.72408998351505
H            5.08564812933406       -7.58619833568838        0.57317413533780
H            4.71388909801274       -2.02272395698925       -2.89500542602023
H            3.12568068274050       -0.28756588779293       -2.23129590583184
