39
 energy: -8.479347134180 gnorm: 0.000718611066 xtb: 6.5.0 (97a52f5)
C            1.02912311829376       -0.39531422802438        0.26878477119097
C            2.49078819496151       -0.49431303000243        0.55885242831287
O            2.88350151949187       -0.28862427438201        1.68647704190028
N            3.32872004718391       -0.83687564048985       -0.50619955786113
C            4.71186028315436       -0.99514544675095       -0.48413212726041
C            5.41222026946732       -0.82081695352019        0.69664843382492
C            6.77846734325707       -0.96938423202147        0.76869865016253
C            7.53703853848534       -1.30534868698537       -0.34702899953483
C            8.98447564712893       -1.45858173161058       -0.27125825149374
C            9.68823326884413       -1.26919284218989        0.91041481023024
C           11.06776717899498       -1.42130458322862        0.97263247835942
C           11.77752148347068       -1.76676101501303       -0.14013471643293
C           11.12157675200699       -1.97288155666363       -1.36998974708360
C           11.83954322807540       -2.33264530081029       -2.52765267819954
C           11.18974191050843       -2.52745364230589       -3.71086609379685
C            9.81097486332473       -2.37161032280636       -3.79237088715895
C            9.04959334830554       -2.01799193731394       -2.68830298842175
C            7.59889446865079       -1.84828171284454       -2.76329937023396
C            6.90783586382110       -2.01698724394119       -3.95281692108407
C            5.53368218729923       -1.85757067329898       -4.02010314408234
C            4.81833849876553       -1.52830104903260       -2.90360832093522
C            5.45188286013136       -1.34143395930946       -1.66385997658265
C            6.86525499901330       -1.49932706012088       -1.58977913064132
C            9.71299227428391       -1.81568193658794       -1.44403784216720
H            0.62193675614074        0.52144560412491        0.69238256773737
H            0.49611416632045       -1.23604203119128        0.71064143689075
H            0.83135400783315       -0.38975132496521       -0.80218295786241
H            2.86081601506327       -0.99869742152426       -1.38803506757529
H            4.85775959127500       -0.56168953130008        1.57923001742118
H            7.25864218223282       -0.82028534816501        1.71793949740106
H            9.16580631680818       -0.99692002041415        1.80870622700754
H           11.57995940364588       -1.26567131587228        1.90810653923385
H           12.84606310914309       -1.88541785720366       -0.08957734983175
H           12.90730015949770       -2.45294840350632       -2.46590244957100
H           11.74849124142322       -2.80343356717136       -4.59026986723423
H            9.33629041713074       -2.53447541418135       -4.74215040494649
H            7.43670028216141       -2.27477438219732       -4.85148915872308
H            5.02634527306490       -1.99440226735116       -4.96145601500759
H            3.75452293134170       -1.40926765982807       -2.98774087594425
