49
 energy: -5.814634222447 gnorm: 0.009953841686 xtb: 6.5.0 (97a52f5)
C            1.97734719100700       -0.15589471707992       -0.02207213075552
O            3.14244591468872        0.56328067157460        0.30434367645700
C            3.91380019690273       -0.14318078427287        1.15494446490808
C            5.05758148049660        0.20065134266228        1.73795052678068
C            5.72860667594346       -0.51511418586679        2.60958109347265
C            5.44744490533295       -1.75022927702724        3.02353675633111
C            5.98174759994452       -2.37350498946536        4.10314580234756
C            6.81587880110170       -1.84337248753283        4.98021539230054
C            7.15223335139101       -2.39211678409536        6.13462091967064
C            7.96189559957110       -1.84847466203061        7.08580352532839
C            9.08842863363303       -1.14217743973640        6.93153275721238
C            9.58159475570667       -0.28502588904199        7.80029366262409
C            8.89187811486264        0.29848438814713        8.77712793004323
C            9.35236144481011        0.79171022445532        9.95573763662404
C            8.40992322409538        1.62515470270947       10.48529479200079
N            9.06842171501010        4.50635793385995       13.16057144968921
C            8.05419190761825        3.96620692991876       13.62144323575703
C            7.62206304468694        4.19581696283523       10.31213164676965
C            9.56064583218640       -0.68577485417358       11.23103926841782
C            8.51415660767316       -1.55269642631158       11.42317609178202
C            7.36081175932281       -1.59325827138002       10.76958498067653
C            5.36509603082358       -6.15402257112355        8.08243118183973
O            4.05574828369030       -6.36938298624238        5.78212968379642
B            4.51028061420784       -5.22645196644984        5.16631978801574
F            3.25021098540939       -7.21084239174126        5.47563097371592
F            7.93392811463301      -10.29853376725478        2.70228191464572
O            2.12854960503045       -5.97147461083415        2.66625455859408
C            1.44303947283192       -5.15036926625553        1.96067551746873
C            2.32122285009321       -1.29348079020620       -0.65986234728782
H            1.35445778683814        0.45892187848909       -0.67552554007028
H            1.42698061584209       -0.38987514164981        0.89234031983735
H            0.22636716616224       -3.51667444305964       -4.29405234354812
H            3.48159439405561        2.49778802284184       -0.64419308250289
H            8.36606930718640        2.10576949631966        2.96345128672168
H            3.60320666371351        0.79342985056084        5.66736296579784
H           10.30368527083418       -2.58647371270465        1.78152950686624
H           10.88144080688645        0.99266570992033        6.12625627377671
H            8.50557988936243        2.57356430376465       10.03594382794634
H            7.90749613380272        2.17487655793857       15.28664779755591
H            2.25111270163385        1.80441471079637       11.34962079185156
H            7.07368811652708        4.32112115977415       13.48725461777218
H            8.68986113083507        5.10951208727728        9.15000640007015
H            6.70808669024761        5.69148067452409       10.84528622709453
H            6.03041209365140        3.48573108696464        9.73146024378442
H            5.32608826371034        0.25994475038239       13.65489338165123
H            4.63159273911007       -3.82588343694577       12.40757133434087
H            6.36564672280035       -4.55667776099158        8.02592781238387
H            1.97568022040759       -6.96331280019190        2.72619357975931
H            0.61515858001591       -5.37155704059232        1.35045984898390
