51
 energy: -9.950401825713 gnorm: 0.000935091566 xtb: 6.5.0 (97a52f5)
C            1.77236894694308       -0.14762255759822        0.94581293960977
O            2.07869978002980       -0.01753706886065       -0.42314882583294
C            2.68811703271678        1.18704672141936       -0.77713027850870
C            3.00693199307473        1.37555116459580       -2.12835155051094
C            3.60623801567539        2.52603124514478       -2.56806281544584
C            3.92163505854726        3.55593094654479       -1.67146934310810
C            4.55321477943488        4.80039142660276       -2.06866279568891
C            4.85299472799684        5.09619386821148       -3.39028362570556
C            5.50581153398097        6.26950684657998       -3.74454499949250
C            5.91087743990925        6.55480835218410       -5.10540672969894
C            6.58446798420884        7.76882462236578       -5.36432818270023
C            6.99168908582162        8.10511598564681       -6.61866609349571
C            6.75163182166669        7.23846490172459       -7.71140753862634
C            7.15957830869740        7.55068802754092       -9.02037444623309
C            6.91074026450933        6.68670989220288      -10.05417825918574
C            6.24770376053431        5.48087163453787       -9.82487598042551
C            5.83678343374394        5.14412478346010       -8.56553591974878
C            6.07570118116708        6.01057183665428       -7.47456218947540
C            5.66722672550476        5.69312533307011       -6.17083316658382
O            5.79350911857849        7.19898052857502       -2.79563963786322
B            5.09592980433214        7.09183082515874       -1.48967597510952
C            3.67121933563345        7.84140772234763       -1.62935884791259
C            3.73677646530671        9.22749990443056       -2.11668761940027
O            2.67559535193381        7.24963276090266       -1.34460832135350
C            6.00726596486442        7.79900913002874       -0.36119992906645
C            7.31256336339562        7.15529855419295       -0.15423116024910
O            5.58895427493862        8.76022641116644        0.21130468683003
O            4.86244613435526        5.68654054207476       -1.08769879605585
C            3.60409803803630        3.36782633756296       -0.32296030767317
C            3.00295423921694        2.21806598030561        0.11708232382675
H            1.30277878077608       -1.11982669647332        1.10237830116472
H            1.07471840513856        0.63571115590614        1.24542909675181
H            2.68760041576655       -0.09657729613787        1.53728730262773
H            2.76566369089834        0.58614645101933       -2.81804249201487
H            3.83726872042628        2.63050144742770       -3.61237815783683
H            4.60286053651116        4.38680100905031       -4.15153511055612
H            6.77322485073588        8.42961370105424       -4.53601700454836
H            7.50262810777286        9.03591138156614       -6.79290354793198
H            7.67216864301791        8.47954792701446       -9.20018276485181
H            7.22957168087358        6.93874475967860      -11.05211515424754
H            6.05935990263579        4.81161010287736      -10.64808246930158
H            5.32576860128312        4.21315688434954       -8.39128645103278
H            5.15679716248315        4.76303446329164       -6.01156868496499
H            4.76556212363822        9.50894588049878       -2.33845032796385
H            3.34981005141343        9.91351147674633       -1.36441652251921
H            3.14547769900231        9.34407550134192       -3.02383527482851
H            7.44017821681844        6.31886559390105       -0.84129629116228
H            7.39621195349293        6.77900701200239        0.86457082034461
H            8.12042088398355        7.86565166561781       -0.32474024710635
H            3.83847375977210        4.15887522630100        0.36888311597335
H            2.77055184880183        2.11062569419067        1.16066524889903
