51
 energy: -5.917897627024 gnorm: 0.004060760782 xtb: 6.5.0 (97a52f5)
C            1.06809460269388        0.03716683434974       -0.08768460950217
O            2.34650957193056       -0.44346207792182        0.12705491113842
C            2.98371321810725        0.22696796852843        1.10806398358209
C            2.64701797973006        1.29453776264535        1.82656239864333
C            3.35347961629649        1.84712995117994        2.78274132106396
C            4.52606522319141        1.43364098501720        3.25596804773816
C            5.29139385283050        2.05820726711333        4.19199446157347
C            5.08137669015199        3.24905246197607        4.72126075739590
C            5.87015696419327        3.83833088169799        5.60270859580188
C            5.72258937553724        5.08350300651485        6.12402171905924
C            4.73208023671059        5.94827312366471        5.86420036652264
C            4.58501819014921        7.17460181642891        6.28788458918101
C            5.40715736287880        7.98425692673350        6.98995705473864
C            6.76859347683396        8.01785341251757        7.12265697544625
C            7.61321452973440        7.26436333721904        6.42490304922857
C            5.32011796188282       -0.89081254355628        9.56180727984929
C            6.13358643560988       -0.30611266867007       10.34601347016098
C            6.24124406339882       -0.50591518441056       11.66999326454008
C            7.07215327058014        0.10738716491187       12.49460879596471
C            8.97181530865180        1.97951121280551       11.97510098917707
C            9.87088748464499        2.70094863438576       11.62628291005789
C           10.65685584798348        2.51737457610685       10.55982597070533
C            4.70551026906257       -2.83615855419016        4.45280545530982
C            8.61087231970001        2.26294877288237        4.03416821833741
C            6.72707393071340        4.89710962822569        2.17786718553560
C            7.42972139130506        3.78270105019196        1.86265835115769
C            5.82088803481351        8.42686691734176       -4.55610205006912
C            4.15065477755838       -0.93127909974300       -3.25084295727452
C            6.14192391608040        1.02672155705194       -4.05510990465039
H           -2.81736558602747       -1.57741306122188       -4.34228180992462
H            1.10136302724250        1.07931493030516       -0.33904778670618
H            0.46856747534115       -0.12013052319648        0.78770896758182
H           -0.69434393922866       -4.37984888516030        5.86614586259769
H            0.47561254412958        0.50132239324307        9.43830527173883
H            0.88258189265108        7.05651553197351        2.29767952416834
H           -0.91827757563761        4.73970057126206        6.56448942155259
H           -0.88205563116479       10.81373016026436        8.26857267139387
H            5.29815878098487       13.11925603635969       10.92334961607242
H            7.16905781483192        8.74335022432877        7.81256036802093
H            8.65972244200502        7.30319824121160        6.51200280914899
H            2.05343159073263        5.78534169294768        9.68265292062463
H            6.77245595213221        4.56847236212199       15.01502798317916
H            7.76752719426544        0.83781686805816       12.18144168815346
H           12.67054930021907       -1.36218160045677        9.24285664270503
H            9.48920156631267        3.16346515147759        5.37381422337011
H            3.80915391465795       -2.46735407956611        4.79088359290553
H            8.89622135361259        0.47609510549613        4.34247619374424
H            7.66815321755185        3.19202290823248        2.72861962892972
H            8.32836465696174        4.00537092449398        1.32047897151532
H            5.44581891155377        0.31969953186227       -3.79076122536809
H            3.29964521720009       -0.79776960474660       -1.62836614767509
