68
 energy: -13.181754432824 gnorm: 0.034522283759 xtb: 6.5.0 (97a52f5)
C            1.43574072453828        3.49803436984260       -1.57791281745340
O            2.56968216212280        2.74482169889896       -1.95376516808113
C            3.74287614575767        3.19426944912520       -1.44342785039923
C            4.93966714765239        2.49035754539004       -1.79132369391890
C            6.14832880195525        2.90149879909087       -1.30479700503004
C            6.18885957433755        3.98639058026253       -0.48332965243859
C            4.23796614174795        5.54179613304881       -3.98191749785157
C            3.04133926611000        5.88795741460667       -4.60182858029115
C            3.25968709300429        6.41319473855324       -3.01894916659859
C            8.63417494407443        7.70779970675141       -1.22786828451402
C            9.15179094285914        8.81381308819082       -1.86431643869925
C            8.55467150672436        9.23778053840604       -3.02791570734833
C            7.44108464962947        8.54159086359504       -3.52459950108191
C            6.94648272934830        7.41562182129545       -2.85000195607014
C            7.55217987015754        6.99747828459114       -1.69156878358310
N            2.78789617414492        7.20384314692231       -1.63548746420406
C            3.67465073867867        7.98653049648330       -2.92392829800114
N            3.27594611319477        8.72879462249667       -1.84025372867765
C            2.86680586200185        9.47004782939335       -0.73811675533269
C            3.10127385957335       10.82320242540535       -0.43850937869031
C            3.91614745943626       11.76801145745138       -1.19461287927885
C            4.02413343697592       13.10657577074582       -0.81107645975499
C            4.79893975075407       13.98433339137412       -1.52946714704840
C            5.50494793079601       13.56932649511511       -2.66245593865967
O            6.26186450547424       14.53779444514496       -3.33627294949718
C            6.97893606673514       14.06238408836443       -4.45073539100930
C            5.40440867397393       12.22750532995841       -3.04191114109639
C            4.62660151377561       11.35431973113702       -2.32241256814265
C            2.41520173388779       11.04100975096931        0.76962799580919
C            1.82172814918015        9.83457942732658        1.12415145276949
C            1.01656485444248        9.58401791720832        2.30881814328404
C            0.41204793207892        8.33430885927552        2.47678031502384
C           -0.34213348646161        8.05535492678801        3.59193515999269
C           -0.51465670667783        9.02072369216571        4.56744017560251
C            0.06773239824899       10.26716263806681        4.41724145845855
C            0.82486460254164       10.55015324234792        3.30346715347554
N            2.09532909842833        8.83624564489734        0.19842049998174
B            2.07092141001745        7.32578123152283       -0.15177594242778
F            0.78035033159421        6.85411037043853       -0.23381236344251
F            2.83199532872371        6.63987465347268        0.76806457729243
C            5.09353468128626        4.70571984381223       -0.11439727824558
C            3.86743463809223        4.32720685760435       -0.58100863081919
H            0.55094616597396        3.04241559223139       -2.02672861080545
H            1.52684717104821        4.52223081883169       -1.94476592009844
H            1.32472622613453        3.48985396300675       -0.49203479967117
H            4.86410179911431        1.63845693469237       -2.44267612625711
H            7.06054772624174        2.38140867524928       -1.55925236684637
H            2.74312569762777        5.63716831174957       -5.61675431189765
H           10.01487819852553        9.32048301396360       -1.45866141998215
H            8.93810196884339       10.09396253552660       -3.55696673511411
H            6.96723425438538        8.87280713652978       -4.43221644881898
H            6.10021565330763        6.87652880524287       -3.24136382301843
H            7.20766729618824        6.11807300953902       -1.17019755859455
H            3.49260197896633       13.45170117681821        0.05786488302639
H            4.87576973436129       15.01575122475158       -1.23377319617025
H            7.55007748087734       14.89383597004955       -4.86773776863147
H            6.28410509340974       13.69210044908075       -5.20631264532503
H            7.67144156195347       13.27803155731025       -4.14131388999025
H            5.93944341899881       11.87184411691563       -3.90330783435066
H            4.55467663309828       10.32632832064440       -2.62475665140027
H            2.37147331699962       11.96286891505215        1.32139739328609
H            0.53683339660615        7.59873580376231        1.70155867516051
H           -0.79838394238933        7.08550515401883        3.70617489366290
H           -1.10219795097760        8.80391428127061        5.44407273598950
H           -0.07306409594622       11.01956916096944        5.17609964946506
H            1.27568215339257       11.52054907042620        3.19521279148242
H            5.19796669508327        5.56194980041602        0.53596475789226
H            2.99792506173936        4.89609362423596       -0.31392723398340
