47
 energy: -9.692605136180 gnorm: 0.000789139853 xtb: 6.5.0 (97a52f5)
C            2.38078547235587       -0.46704023495150        0.34585537772346
O            2.96030040146940       -1.05238620253344       -0.79876892606097
C            3.42315671320916       -0.14396014484496       -1.75038529384281
C            4.00985871042081       -0.66263484106674       -2.91166014929589
C            4.48489721127310        0.16364538201743       -3.89534901624548
C            4.40412739657496        1.55317875851808       -3.77125490697887
C            4.91452971749427        2.40491098552517       -4.81789970363170
C            4.91433251443483        3.75074526710417       -4.92891784745451
C            5.52807958168643        4.31764222741681       -6.15401580955053
C            5.64123602702286        5.66297293521341       -6.45102217516180
C            6.25534950815390        6.07535049888187       -7.65442784544330
C            6.38939968864807        7.44325603580644       -7.98687087041737
C            6.98915417552652        7.82156849182860       -9.14940149513888
C            7.48385583991294        6.86032345058582      -10.03898500745917
C            7.37142651618447        5.53239547660293       -9.75471933128932
C            6.75681503309830        5.10088579816783       -8.56024631085403
C            6.63124859771292        3.72544055579898       -8.23786611521023
C            6.03700993877731        3.37239791727666       -7.07556189815933
P            5.71101052494906        1.78896269973501       -6.30743698474038
O            4.76898826306091        0.89525083547693       -7.15464364267927
C            7.24734501018034        0.95998412664972       -5.89876210240280
C            7.46490268942718       -0.32028565423814       -6.34647219398220
C            8.64667646108577       -0.96391012095619       -6.02442891760033
C            9.59550501766759       -0.31513991767066       -5.25828156468614
C            9.36762223905334        0.97259517873721       -4.81272834303283
C            8.18469500405858        1.61339623728408       -5.13502322551490
C            3.82039046478721        2.07490084847027       -2.61276249370306
C            3.34122782746553        1.24930565082096       -1.62771256791376
H            2.06136978896945       -1.26334191147226        1.01953711988947
H            1.50907053707401        0.12438744909045        0.06170856957883
H            3.11478105028662        0.15569060474217        0.85944506319962
H            4.07650250709276       -1.73118502446424       -3.01458795739116
H            4.92447678407971       -0.25105248197210       -4.78535087205782
H            4.48960722410820        4.39586992722099       -4.17362254113806
H            5.26336956226062        6.39624134814915       -5.76286750931602
H            6.01040723627150        8.18417744485691       -7.30436066492384
H            7.08479235511677        8.86778532582822       -9.38963717930750
H            7.95668039472857        7.17636922910424      -10.95435541914831
H            7.75333085352848        4.79526793583011      -10.43969443204239
H            7.00712070985184        2.97194072222314       -8.90647233575253
H            6.71055050157591       -0.80764191680776       -6.94386327159139
H            8.82591843456414       -1.96793500629396       -6.37227755579369
H           10.51734316267909       -0.81444196994711       -5.00873422722618
H           10.10809159027862        1.47763861515355       -4.21463295460632
H            7.98823764274599        2.61790684250962       -4.79463196125800
H            3.74830284956941        3.14188577955877       -2.49637434384773
H            2.89651026952867        1.68144484503343       -0.74996816653871
