38
 energy: -7.599694030445 gnorm: 0.000492644733 xtb: 6.5.0 (97a52f5)
C            1.89344015742089       -0.48840559761117        0.05611111812717
O            3.20930298353586       -0.04474867361796       -0.17920037173891
C            3.34370336643806        0.88771049808869       -1.20732789123912
C            4.63343693295519        1.34530475736044       -1.49734719178360
C            4.85180174072652        2.26002886584063       -2.49378617450278
C            3.79913281428894        2.76146496928821       -3.25437885927189
C            4.09527407000405        3.74349725320541       -4.30236340112907
C            3.17702143975296        4.12064078226115       -5.23606876026086
C            3.48237939168378        5.07229005594372       -6.24223441917745
C            2.50776530961511        5.43291759614797       -7.19721810206124
C            2.78891267178571        6.34014250583092       -8.16483953107236
C            4.06520188014800        6.94037854467084       -8.23005131861777
C            4.40259358917519        7.88774454065004       -9.21668057947126
C            5.64653767720760        8.44634946357189       -9.24654925410946
C            6.60384274303501        8.08451886014687       -8.29590881370097
C            6.30349086218656        7.17008444881488       -7.33107761202886
C            5.03301783823115        6.57301573604881       -7.26854085498639
N            4.70431693220658        5.64324118859787       -6.30279913531145
B            5.81047677598509        5.27190288681986       -5.29698925305504
F            6.87299529021067        4.75359427745466       -6.01441575927158
F            6.18244517208001        6.42674350670796       -4.63361027292596
O            5.35193942736371        4.27270624552216       -4.31595422208711
C            2.50878156830964        2.31351676975954       -2.96520094072566
C            2.28531714160963        1.39924463831228       -1.96698792070470
H            1.92036192011094       -1.22440500846016        0.86102474382387
H            1.49415592384632       -0.95954998181680       -0.84337934588192
H            1.26902669817865        0.35164773965344        0.36394714227691
H            5.45252452064096        0.96006566782680       -0.91612166979871
H            5.84810529391676        2.60904914377196       -2.70626077639027
H            2.19823057270204        3.68131567787340       -5.23485929491901
H            1.53415321635833        4.97629329288500       -7.14858049526981
H            2.04385917773348        6.61219228471289       -8.89224277648377
H            3.66407141673023        8.16572567344700       -9.94864639426317
H            5.89449588360948        9.17051675486288      -10.00509135939436
H            7.58360183383868        8.53243629413560       -8.32741377316257
H            7.03695519363065        6.88895752565207       -6.59635519834740
H            1.67274469929331        2.70142524014675       -3.51902623462259
H            1.28015587345119        1.07764557549227       -1.76351504645848
