33
 energy: -7.089267007981 gnorm: 0.000382142389 xtb: 6.5.0 (97a52f5)
C            1.12025656957732       -0.09235653155869        0.43165009570159
C            2.59074953871016        0.16280444072200        0.48295692547943
O            2.99330111573303        1.29845253986700        0.61401919962488
N            3.42573904427862       -0.95288594387874        0.39333662735179
C            4.81997335706756       -0.97987573678355        0.43711319797295
C            5.53614689914095        0.20457115790712        0.63040762085010
C            6.90195201067794        0.23178314216950        0.70783717923426
C            7.64696724756800       -0.94690823719627        0.59427494212622
C            9.06941290624955       -0.95032857444305        0.68017810066776
C            9.77705060167572       -2.09867417538483        0.57162169408834
C            9.12267524526869       -3.34961501277078        0.36358456391169
C            9.82970510680912       -4.54870681134838        0.24814119956243
C            9.16824466270764       -5.74162813001313        0.04461936482878
C            7.79323498802380       -5.77656771496032       -0.04980291886975
C            7.03970720111989       -4.60508184280010        0.06031846613051
C            5.61801237060778       -4.60122772828911       -0.03396020326252
C            4.90925486354043       -3.45305949145864        0.08132011768561
C            5.54403342677801       -2.19616562350993        0.30358162064870
C            6.96035731510029       -2.16860234792232        0.38933977293901
C            7.70887857179995       -3.37633255543887        0.27098170526040
H            0.60930816513663        0.74322486637304       -0.04433702829847
H            0.71625471613954       -0.20641793664455        1.43661042213673
H            0.89264670671362       -0.99419519553571       -0.13515868501974
H            2.95122628656844       -1.84267327898101        0.31161017137063
H            4.97950966396956        1.11809901995134        0.72437619985462
H            7.41799601688605        1.16375863459881        0.86100583143285
H            9.57779575322671       -0.01475355822469        0.83640068182787
H           10.85081130748785       -2.08298866433040        0.64100944843157
H           10.90336436370298       -4.53143390702172        0.32048549196304
H            9.73193547334157       -6.65597663645985       -0.04140757039105
H            7.28559295023182       -6.71190696891204       -0.21002234631759
H            5.11178133006947       -5.53581315491627       -0.20296098392005
H            3.83984422409055       -3.49515804280703       -0.00564090500199
