51
 energy: -10.449769363505 gnorm: 0.000497584691 xtb: 6.5.0 (97a52f5)
C            1.63491636292613       -1.05193187605526        1.36405983879933
O            2.89322133693399       -0.67837105184224        0.84750801901876
C            3.37493746427384        0.54808849465976        1.31121075169575
C            4.60523322258810        0.99403749532042        0.81285536684890
C            5.14434389060396        2.18669427322686        1.21812786566844
C            4.48505776362644        2.99916356900164        2.14380208923322
C            5.08125436428179        4.25133784836593        2.56906254313202
C            4.49535876198363        5.28146183092080        3.21284001065847
C            5.33923417925399        6.45231395710100        3.53554947447225
C            4.88465200598793        7.61135699072506        4.16874963419048
C            5.76262050962812        8.64713012251297        4.41279630994770
C            7.09142833054472        8.54874871135229        4.03556433371111
C            7.55594451520177        7.40669967804258        3.40861838409870
C            6.68458657768724        6.37297383671362        3.16494906190321
Si           6.85941070002475        4.71498433384461        2.38720176631476
C            7.96049377033912        3.60580717148201        3.39936343643804
C            7.45535397750972        2.45976284997421        3.97492344199354
C            8.27714400348562        1.63771622445899        4.72042304276281
C            9.60812242025171        1.96527936194906        4.88711606732961
C           10.11538344191898        3.11232415285424        4.30910585421513
C            9.28912216364743        3.93233702096304        3.56520214181308
C            7.33372692722062        4.82704409075452        0.59181721004803
C            8.26606610197040        3.95728941078782        0.06796520331373
C            8.56771890426591        3.99622025022620       -1.27926988541970
C            7.93450434019596        4.90850647665302       -2.10010836899479
C            7.00087283726678        5.77994443004488       -1.57469977322904
C            6.70100203615814        5.73700979292796       -0.22694443254394
C            3.25677154868963        2.55814245594127        2.64364017584155
C            2.71431732601857        1.36410842205020        2.23883703286370
H            1.34153200162209       -2.00481245996634        0.92168551324919
H            0.88668273007618       -0.30102140646652        1.10657575119587
H            1.69620397035500       -1.17108440569862        2.44668157597127
H            5.11996435525769        0.37612537543753        0.09863087699066
H            6.08593483727529        2.51809064158407        0.81755580608128
H            3.44888592593215        5.27657808435188        3.46743852442226
H            3.85111368269049        7.68483635982317        4.45941596957995
H            5.41087907442741        9.54119926519179        4.90116230073194
H            7.76743200985148        9.36494677025581        4.23146902897580
H            8.58591381260183        7.31684524973984        3.10949497220607
H            6.41776062600151        2.21247488978244        3.83163096331283
H            7.87988510160235        0.74229968185715        5.16997506907263
H           10.25162789314278        1.32506952123788        5.46837761569091
H           11.15439815102635        3.36825076387774        4.43762594240312
H            9.67258374089147        4.82901300639987        3.10804513197014
H            8.75215130841675        3.25050349669869        0.71902790049573
H            9.29571367846677        3.31500909045320       -1.68871287530994
H            8.16863952607113        4.93987476968704       -3.15177734291091
H            6.50488910600137        6.49103064259986       -2.21496027176599
H            5.96997206851163        6.40560726947837        0.19563725325084
H            2.73689810073188        3.16387531272290        3.36501474482577
H            1.76803851454605        1.05258775599313        2.64202895345400
