40
 energy: -8.349688135236 gnorm: 0.000363957731 xtb: 6.5.0 (97a52f5)
C            1.31317190431352        0.65803193854901       -0.97924607436992
O            1.55235268270067        0.35026047819262        0.37520215666278
C            2.41457759427579        1.21369746465497        1.04690511680972
C            3.01930580182240        2.31414335820709        0.44167589755213
C            3.87367208617597        3.13587914567011        1.13695141808217
C            4.16951323457522        2.89232273282420        2.47271526320591
C            5.07638022745994        3.77077174104382        3.18938512880944
N            5.58069015260067        4.87184866501805        2.66861240838191
C            6.39116263311400        5.44137038071153        3.60983263469911
C            7.11543601377559        6.59568349214308        3.49704447667382
C            7.13873394360466        7.45187827980030        2.34957891706638
C            7.93298344287397        8.60587160938435        2.34441389569383
C            7.95735535318368        9.43842967906219        1.25363418830694
C            7.19249562468033        9.15848218414171        0.12396997915603
C            7.21697910639045       10.01186298896257       -0.98561957996419
N            7.23569683864737       10.71929564449137       -1.90695455826630
C            6.40102379292785        8.01330273928797        0.12040421871235
C            6.37664479687072        7.17983710735763        1.20836842696962
C            6.37761465501881        4.59227958891798        4.81354819151290
O            6.99403408911648        4.78534149378045        5.84534902210465
N            5.52467392435282        3.55946586570028        4.48926280910383
C            3.57027361615385        1.79826406279076        3.09157119270995
C            2.69807536002415        0.95831051523267        2.42143031673036
O            2.16016586699057       -0.09460009397050        3.17645177755635
C            1.15896764979088       -0.84807916196921        2.54613376008700
H            2.25011544142821        0.62228321583783       -1.53711545170240
H            0.84676392385114        1.64127342460367       -1.05728049904167
H            0.63117812482850       -0.09148552215828       -1.38345241687494
H            2.81864129077182        2.53032872779358       -0.59155307169639
H            4.33096243658359        3.98131622820150        0.65297329559037
H            7.71128058887359        6.88272711921271        4.34478861728486
H            8.52867068940845        8.83600885927925        3.21096857758557
H            8.57117687411004       10.32326004143727        1.25941359337826
H            5.80683859259805        7.79227701411578       -0.75011808606071
H            5.76229379631399        6.29981316870758        1.19569139835748
H            5.32477868067090        2.77888057204388        5.10485572281848
H            3.76952775617567        1.59123839547239        4.12551062763244
H            0.76655776891895       -1.57766138051161        3.25633773907375
H            1.59029551636458       -1.36264370400228        1.68549172752760
H            0.35947812764730       -0.18109805999616        2.21818724214786
