39
 energy: -8.111814877464 gnorm: 0.000732529461 xtb: 6.5.0 (97a52f5)
C            1.03209684873038        0.68255496428373       -0.63315497732475
O            1.41588752147943       -0.02309898086747        0.52467987969396
C            2.20062696186648        0.68309203722674        1.43044181682087
C            2.60607139374485        2.00233815953460        1.22571014358942
C            3.38969108397573        2.66254266304649        2.14076279007494
C            3.80469161074243        2.02770448819528        3.30380793694113
C            4.63947400031606        2.70955965992950        4.27761055144363
N            5.03007954879380        3.95722795855479        4.14803675873831
C            5.79024335382580        4.23862050320611        5.23858736668029
C            6.42867899017175        5.40806591856706        5.54141716396817
C            6.39772674678367        6.59905776120028        4.74644378605759
C            7.10321227336398        7.73885423779637        5.15144095045252
C            7.07739347013186        8.88653901773967        4.39929696102072
C            6.34779180851531        8.94749973659284        3.21499810517938
C            6.32174888563586       10.11902416705298        2.44884221722798
N            6.29905419577235       11.09097135810079        1.81317510768080
C            5.64305334153022        7.81923828737477        2.80568296789233
C            5.66886795954674        6.67179427109764        3.55528129506467
C            5.83509861223892        3.02320001723749        6.07812959812297
O            6.43355528981444        2.93025203398916        7.13231062377271
O            5.08954011984861        2.09035450680136        5.42308614153884
C            3.40848236203185        0.71447481180787        3.52639943664116
C            2.61495177313878        0.02398728072449        2.62695748787765
O            2.28416342992002       -1.29048525893998        2.98342041987468
C            1.42826206716754       -1.96703248658917        2.10257767835789
H            1.91902978668973        0.97913970014201       -1.19472079780824
H            0.43370590594775        1.55056154217082       -0.35335775828297
H            0.42639256510520        0.01735830498252       -1.25054712571387
H            2.30411864258665        2.51999855523146        0.33369475569728
H            3.69544832937347        3.67985981549247        1.96750017007693
H            6.99852127640439        5.43166507181100        6.45317021892313
H            7.67095195342996        7.70711042386653        6.06557801707388
H            7.62388306152012        9.75787847179138        4.71880734626354
H            5.07579172877530        7.86147402339122        1.89111227230904
H            5.12056343504668        5.80701828770738        3.23273736517545
H            3.72350991061020        0.21677433207948        4.42581766362164
H            1.21428315844997       -2.95626856917401        2.51089766155435
H            1.91935655729714       -2.06252170748533        1.13209022177810
H            0.50193003968995       -1.39859536568360        1.99760778193601
