39
 energy: -5.011077429505 gnorm: 0.015965605607 xtb: 6.5.0 (97a52f5)
C            0.62336900483643       -0.31582751797126       -0.11322001787737
O            1.69133388253851       -0.71338900469753       -0.84471371985595
C            2.27438772216227        0.35095954974636       -1.43456027876758
C            3.20085686011801        0.39080365826024       -2.38043342428048
C            3.78736822453223        1.46966809406551       -2.85580131311758
C            3.63110953097918        2.71672913737218       -2.43506449651215
C            4.22328738894125        3.81948951016621       -2.99062966126342
N            4.72935949020473        3.88978518893911       -4.15556552557280
C            5.37177673265221        5.07294373632688       -4.46763839783309
C            5.71051199846669        5.35217615430060       -5.73280456874610
C            5.40218634938705        4.57471888393643       -6.79675402732917
C            5.71630056144623        4.74724729066978       -8.07569717824973
C            5.28133894742987        4.02017536193979       -9.08024399065984
C            4.41737102552039        3.01880650179841       -9.03638678853025
C            3.76638438398012        2.49810494001860       -7.96197752420470
C            3.23365885661169        2.09520539224946       -6.99255503106985
C            9.08121964029056        9.77381290812185       -2.93746996103893
O            8.16284693003321       10.24882082370423       -2.33936343421881
N            5.69538381350436        5.93725493750687       -3.41470947666739
C            5.46582217712246        5.87280296846704       -2.29050545356283
C            0.19199443146583        1.69828280500772        1.72723803471269
O            0.05225281940697        4.54528568836677        2.14056050584923
C            0.65577992253546        5.20435853949076        2.95174571056276
H            0.79130942392184       -7.30721944963707       -0.20754825719598
H           -0.16391653507409       -1.52114211079811       -3.90913945324717
H            0.91530893102262        0.45240216101991        0.55951755367153
H            4.79696426981465       -1.53712404250603       -2.48965849140395
H            6.73659726880690        2.50439300863539       -4.68204341828692
H            5.08808914732121        9.47192664298541       -7.92005351630447
H           10.49556399615031        4.99826696389455       -8.27230799665521
H            7.86580343276133        2.74790228133149      -13.09320305807663
H            1.93454311572710        0.67486160905667      -12.48244362928091
H            1.95734444761109        1.17401766578842       -6.62462251334726
H            3.81873516098751        2.89103876757644       -5.73578105226089
H            6.26679110003403        5.21727405434891       -0.99735250567404
H            4.26574916419497        6.47584411510470       -1.31294185201402
H           -0.94385753452441        1.03089341355315        2.97443261478772
H            1.75834570438076        1.91509319382927        2.62169083898216
H           -0.99622178371834        2.26685617853102        0.46439475361512
