38
 energy: -7.609290262988 gnorm: 0.000589899258 xtb: 6.5.0 (97a52f5)
C            1.20381062422519       -0.66635381748146       -0.60622614323958
O            1.59329433703689        0.41087961806846        0.21568255559040
C            2.35082975538796        1.39912214750110       -0.40700626364081
C            2.71751776145741        1.34469713287495       -1.75194242041709
C            3.47393720767912        2.33468432048553       -2.33122112793579
C            3.90132817937155        3.42462707865183       -1.58519474120453
C            4.70214991263980        4.47893151158222       -2.18511757161724
N            5.03785404058822        4.49464417922330       -3.45436221933244
C            5.77710996412834        5.62119683472590       -3.64392418696135
C            6.34252562708279        6.07119264896486       -4.80127386833420
C            6.24524520708980        5.42560639828582       -6.08057157984779
C            6.87650462073445        5.97909011996057       -7.19977308909032
C            6.78124640061058        5.37551712865430       -8.43191505758206
C            6.05650098977182        4.20909524318194       -8.58146270213958
C            5.42599636241323        3.64490691336397       -7.49010028498736
C            5.52023619058568        4.24435978264072       -6.25752597245460
C            5.87254547468195        6.31806086725374       -2.34231423752786
O            6.46655555819601        7.36258475586590       -2.15487264992355
O            5.17289995195516        5.55246796335117       -1.45750470157495
C            3.54769310733534        3.49561034450647       -0.24315364063585
C            2.77987884456033        2.51913320052108        0.36768770208210
O            2.49120823863194        2.72207391819399        1.72568454664873
C            1.57255193542497        1.82649036566078        2.29402023854205
H            2.08784820407167       -1.18429946636271       -0.98117492966263
H            0.58729548769827       -0.30089637027988       -1.42859755447942
H            0.61538439798991       -1.36035745202935       -0.00462621084438
H            2.40805374690893        0.51094603227581       -2.35486645249134
H            3.74864665276155        2.27744727369028       -3.37006134771519
H            6.90084528981341        6.98847994639683       -4.74905597058505
H            7.44112108377867        6.88859140162804       -7.08697888403203
H            7.27292641866063        5.81415461104169       -9.28480908233836
H            5.98128526901597        3.74047203927878       -9.54904044339762
H            4.85928960271591        2.73549686225940       -7.60619997000388
H            5.02979553382578        3.80751603699027       -5.40848661855563
H            3.87480160097921        4.33624800674541        0.34109566888618
H            1.35304976352566        2.14407077275811        3.31467091425864
H            2.00882127801374        0.82599440440930        2.30362529188964
H            0.65546537865195        1.82620724513139        1.70198300465116
