47
 energy: -9.454021265291 gnorm: 0.000632476770 xtb: 6.5.0 (97a52f5)
C            2.01220301462544        0.18036507727381        0.25994989489400
O            2.33922856207969        0.37858547215822        1.61572096429693
C            3.13295436534957       -0.61819045194453        2.18437981706991
C            3.45069336641428       -0.49103180783652        3.54209835780695
C            4.22233550073072       -1.42654188784443        4.18019833316729
C            4.71405711744529       -2.53109925003074        3.49039304292035
C            5.53293051354595       -3.52780710474027        4.17775204421259
N            5.99540663476658       -4.52840670877111        3.48245801587847
C            6.83177222868985       -5.38685042106276        4.14974345256015
C            7.56023945890758       -6.32102647643200        3.41705132964271
C            8.41923368543311       -7.18527735593548        4.05422610026611
C            8.56409844492291       -7.12636138026720        5.42045071086415
C            7.84061719289370       -6.19722159437727        6.16429222912205
N            6.99435356969146       -5.37104989535605        5.49763133893705
B            6.07040761483412       -4.49579877853946        6.30709484300331
F            4.91704635426589       -5.20993674345649        6.57628946343407
O            5.75390466839148       -3.31520885202144        5.50564329748904
O            6.75042470601500       -4.15168011317035        7.55373415044928
C            7.50344572899248       -5.12681267601797        8.13519051359650
C            7.75201744719799       -4.98223354934482        9.56826439620818
C            8.52182349147487       -5.91343221093656       10.26102945704576
C            8.75526127489962       -5.76649396447027       11.60307814528303
C            8.22987813460062       -4.68165117662821       12.31518681158873
O            8.52061638021597       -4.60938705098842       13.67799446391562
C            7.97103375469504       -3.49885298202914       14.34760947672541
C            7.45501331289320       -3.75075767020850       11.61274950083460
C            7.22386533507473       -3.90146112224248       10.26942192786614
N            8.02105410536677       -6.15385999768729        7.52310526653384
C            4.40496581297356       -2.66408136312726        2.13829830169119
C            3.63143377186946       -1.73149331274577        1.49659190031122
H            1.38093498497453        1.00928304917844       -0.06372375428661
H            1.45946988022361       -0.75362181871405        0.14579901009210
H            2.92169025231771        0.17011015756128       -0.34291076896717
H            3.07071204911450        0.36317218503984        4.07459031601839
H            4.46069991305799       -1.32311613934744        5.22527624508334
H            7.44038376607562       -6.35012020008665        2.34819170123604
H            8.98162791951452       -7.90548713213278        3.48292183597047
H            9.23685781859961       -7.79100653176523        5.93356619980931
H            8.93116950110173       -6.75040425921834        9.72249773607323
H            9.35092078290332       -6.48453629268256       12.13862557971062
H            8.26633147823130       -3.55228824447002       15.39662938897697
H            6.88223733014793       -3.52938789031996       14.28264992424468
H            8.36076359317443       -2.57603558480570       13.91505270397164
H            7.03571413418430       -2.90626071349444       12.12853148876263
H            6.62840776378613       -3.18319908022619        9.73172722956679
H            4.78558188273234       -3.51787248448013        1.60475141167154
H            3.40728140060833       -1.85995367125277        0.45338620445003
