82
 energy: -17.928717940495 gnorm: 0.000723618068 xtb: 6.5.0 (97a52f5)
C            2.46496994680011       -1.18773058784757        1.33942990880910
O            3.77389153586182       -1.20536913608210        0.81794340239070
C            3.96464832667737       -0.42898335667017       -0.30785792136414
C            5.24739748470969       -0.42479457459631       -0.88434819416474
C            5.51820578094904        0.30438288150015       -2.00652293731481
C            4.52648858728531        1.07518627598856       -2.63285889707109
C            4.82003211699590        1.83987641737889       -3.83361044115485
N            4.28562918122012        3.03032690426490       -4.20976287720652
C            4.94433149660270        3.57871887559274       -5.29559868144325
C            4.68516512326290        4.85186263527447       -5.83738362240597
C            5.42989623914286        5.36743252561278       -6.99907862257112
C            5.95743927246943        6.66299633421391       -7.00104190536588
C            6.64661538213749        7.14405469175547       -8.08649737865512
C            6.83684229412900        6.35367626430284       -9.21562723828780
C            7.53767904120655        6.84654451733610      -10.32322946495890
N            8.11753504521605        7.25930103218777      -11.24149417379465
C            6.31573836358301        5.06365937924026       -9.22194570336572
C            5.62791517801812        4.57883757298518       -8.13731019673940
C            3.67364688553411        5.60635031655310       -5.21295560348266
C            3.14626882684308        6.85791978297020       -5.59169427342442
C            2.10657428143581        7.17425209472054       -4.73765959811914
C            1.36293609496261        8.44268387789506       -4.76966141957645
C            1.04963058427810        9.12460119926744       -3.59221685627869
C            0.36209301690088       10.31322097595878       -3.62733188177211
C           -0.03315805017531       10.86897135066033       -4.83957343441540
C           -0.73867133587996       12.07939192494510       -4.87497454096166
N           -1.32211679089908       13.08336144495127       -4.90449116379965
C            0.28827448740367       10.20078441210945       -6.01645842959270
C            0.97705971234127        9.01253423066694       -5.98385601364736
C            1.94422769256338        6.07538593760437       -3.80974855056367
C            0.85355821234725        5.89150418779386       -2.86728245426459
C            0.98693823205215        5.07725653739129       -1.73586607202247
C           -0.03727164100462        4.91355717663174       -0.84870623418267
C           -1.27595306842696        5.55111832371652       -1.04003033502821
O           -2.25474845018981        5.34144349913161       -0.08918617113289
C           -3.46824650731201        6.01928346240359       -0.32225947838364
C           -1.42249295050264        6.35126270583911       -2.18752598328780
C           -0.39084165945848        6.50933701247065       -3.06952951856981
N            2.92659447254065        5.19127776284517       -4.12438001306578
B            3.16633021327388        3.80721041185739       -3.49023872158235
F            1.97808643880264        3.10090309804327       -3.60205543515673
F            3.57336864408473        3.97276986968203       -2.17462237035093
C            5.94536782494088        2.65123202253447       -5.65215857606393
C            5.87377451927343        1.57350834902959       -4.78913112905283
C            6.69775492409995        0.36032098112510       -4.89577470205853
C            8.05627778882699        0.44318806335409       -5.20452472784990
C            8.82554173538937       -0.69086357326886       -5.30503687665469
C            8.26636403789337       -1.94958870076683       -5.11011688496134
C            9.05320174767479       -3.10527421554399       -5.20877772042002
N            9.70324088219347       -4.06466330453573       -5.28602942540394
C            6.90964393986815       -2.03889973570916       -4.81749764753304
C            6.13897706200317       -0.90649211043525       -4.71538344002269
C            3.25660507900272        1.08920685197276       -2.04185380000714
C            2.97535996327011        0.36042091994803       -0.92147424222110
H            2.43634707365814       -1.84355108427527        2.21098695765332
H            1.76334537405742       -1.56017337731991        0.59129993217311
H            2.20302364275798       -0.17450242412520        1.64814945260542
H            6.01428637938678       -1.01516525003656       -0.41485188805119
H            6.51367438350006        0.30614421418029       -2.41385205864213
H            5.83927878188369        7.27509555471134       -6.12370488698488
H            7.05198722347485        8.14167986758166       -8.07463585826827
H            6.45648597997354        4.44953497828143      -10.09523394708173
H            5.20632092235802        3.58900445073462       -8.16538205742995
H            3.49145321482666        7.46819175576793       -6.40683998313758
H            1.36195649777740        8.70819088956602       -2.65011369691053
H            0.12164653404662       10.82982103046849       -2.71367624561917
H           -0.01238302216750       10.62915588160510       -6.95750688236210
H            1.21361341488911        8.49984886064654       -6.90016232415399
H            1.91893374643597        4.57156102643647       -1.57525676225282
H            0.08188599913779        4.28927424501800        0.01918698457959
H           -4.14948749931235        5.79152634368780        0.49905223015476
H           -3.91123071087690        5.67387516189117       -1.25766716262285
H           -3.29199677505420        7.09580409375044       -0.34897058021785
H           -2.35874297172237        6.84311785031449       -2.37808616612682
H           -0.53552418379372        7.10588650162535       -3.95263583403510
H            6.64669577607298        2.75888831498537       -6.46002770641606
H            8.50134630880238        1.41256658215543       -5.34786110903032
H            9.87508498358885       -0.61720117814296       -5.53422483426908
H            6.47004243087959       -3.01099189610545       -4.67173426750583
H            5.08756225475766       -0.98593881549344       -4.49916796706092
H            2.49341713546392        1.69676578630387       -2.48808456844642
H            1.98612986296201        0.39590483955821       -0.50322010097913
