74
 energy: -15.474237475197 gnorm: 0.000697338750 xtb: 6.5.0 (97a52f5)
C            1.80128426018085        0.74454881852741       -0.51168350486355
O            3.18490227611716        0.60401673912027       -0.28127687348403
C            3.57367213520776       -0.63695397044605        0.19060038190975
C            4.94272258907825       -0.84276351756491        0.43447633537864
C            5.40782052752354       -2.03682731555367        0.90866558069882
C            4.53576346821575       -3.10104555408565        1.17959744239128
C            5.03244998404049       -4.37483911186202        1.67779317763210
N            4.56132318492872       -5.60866629936377        1.37005574852671
C            5.38430351841657       -6.61858997130776        1.84353580615945
C            5.20254315234603       -7.99486651666730        1.60082642606179
C            6.11288959176571       -9.00672895452337        2.16014336575562
C            6.60407635789560      -10.05275986064310        1.37170677968236
C            7.45557353455239      -10.99349814640973        1.89601019737600
C            7.85156780641327      -10.93104908330685        3.22854725628650
C            8.72131390826810      -11.89047827378053        3.76184749358642
N            9.44262572618002      -12.68596238553298        4.20547152512954
C            7.36652500533401       -9.89470393632789        4.02032943048078
C            6.51677206025569       -8.95119899127600        3.49843645955304
C            4.10802003300746       -8.34546545340246        0.78693527505429
C            3.63034735481246       -9.62103304966955        0.42240307682075
C            2.47647303089274       -9.46541505176724       -0.33054157942834
C            1.75405038241259      -10.54575224511037       -0.96499318948149
C            2.16009743545739      -11.85448597299956       -0.99007680438338
C            1.31024532380528      -12.70872083096540       -1.73557296342640
C            0.24655066594299      -12.07089908604526       -2.27592305231846
S            0.25129744784173      -10.40233741525299       -1.84658776275686
C            2.21692796314398       -8.04477118329379       -0.43816506176773
C            1.07005058775803       -7.38019047680843       -1.05526479587726
C            1.24236672881903       -6.31287075221822       -1.94503339032719
C            0.17049757987989       -5.69037848262524       -2.51842751782570
C           -1.14528112055140       -6.09350339930176       -2.23271816391140
O           -2.17349807046682       -5.41495414322335       -2.86227784359274
C           -3.46733281343303       -5.88074752204703       -2.55413809115325
C           -1.31642002188097       -7.15606852047710       -1.32795843626135
C           -0.23935352069401       -7.77603366683563       -0.75908058969692
N            3.22651501214541       -7.43823909199811        0.22850411172792
B            3.31294654024663       -5.93131738031029        0.52641796250974
F            2.17568002661355       -5.59074104046853        1.24722550602911
F            3.41775258040365       -5.23577232884179       -0.66777326847034
C            6.43815436998242       -5.97278254023082        2.51926924341589
C            6.23260306457778       -4.60504936864285        2.45643249031598
C            7.07377542191558       -3.63528623330228        3.13016851777432
C            6.70653142511880       -2.39889835916964        3.59135947276318
C            7.75973833815122       -1.68509808813617        4.21476055298181
C            8.93014849249032       -2.36459280223220        4.24183067291808
S            8.75592377680436       -3.91428183703971        3.50457294423087
C            3.17586928799214       -2.90209030900972        0.91299443513506
C            2.70204450363803       -1.71126434075886        0.43939643273964
H            1.61333992569983        1.75585435259350       -0.87508256426093
H            1.25263745678796        0.59488530843201        0.41939893406753
H            1.47685690864509        0.02989790710421       -1.26955849248410
H            5.61976977443488       -0.03167844339867        0.23299542371288
H            6.46369236861444       -2.17861005695596        1.05824596336112
H            6.32943741349723      -10.09527049915314        0.33209103366880
H            7.83193757406115      -11.79054613013251        1.27764637101669
H            7.66504165084702       -9.84509280503956        5.05365647383260
H            6.12788860531547       -8.17001985532174        4.12822032115653
H            4.07715389799923      -10.55852612413535        0.69918761980007
H            3.06653647259560      -12.19938328521628       -0.51762238379714
H            1.50162037275838      -13.76382673420897       -1.86861707945659
H           -0.51363435207149      -12.52830265227539       -2.88086022496781
H            2.24217495605782       -5.98838219756531       -2.17428629403456
H            0.31220077739591       -4.87281212631928       -3.20283131297873
H           -4.19008541054640       -5.28365697612513       -3.11208254164554
H           -3.65930574586104       -5.76362604918155       -1.48657985637131
H           -3.56598266229779       -6.92572253070837       -2.85205203494383
H           -2.30747520464201       -7.48812354406399       -1.07836343994309
H           -0.38763050556310       -8.57689635104139       -0.05483647928159
H            7.26822680676370       -6.45281837188608        3.00551456707291
H            5.70093223426941       -2.01699196743188        3.50751656722325
H            7.63705626383346       -0.69429725053202        4.62777841628524
H            9.85013082845012       -2.00484538969495        4.66275025038109
H            2.50130873589541       -3.72218839405676        1.06998504543847
H            1.65054994351060       -1.60143253050312        0.24703450516247
