50
 energy: -9.643614091635 gnorm: 0.000637772408 xtb: 6.5.0 (97a52f5)
C            1.34780497476419        0.94543845752556        3.40577077236695
C            2.41289742227414        0.09305968146840        2.80012801304357
O            2.08722577719292       -0.89042189510127        2.17124243214599
N            3.73543645952305        0.48284180233395        2.99951040076316
C            4.88473462798967       -0.11268671787488        2.44249834321236
C            4.73946462708258       -1.25404482934917        1.66033078389832
C            5.80758564646554       -1.85433259095894        1.04355288487028
C            7.05877873857720       -1.31135912620399        1.17324296784961
C            7.28527415960523       -0.16030385822322        1.93433688107257
C            6.16965324833131        0.44660246225047        2.63006002716747
C            6.21224148058311        1.57695592859088        3.49358065453877
C            6.28930308457078        2.56116558866667        4.23128747494752
C            6.38025371962917        3.70492553537656        5.07897228734622
C            7.49610998729424        4.60931861899758        5.26038331527121
C            7.33510553694319        5.70532348636356        6.11381676116164
C            6.16735096426550        5.92579974954111        6.79960999266798
C            5.11952512506920        5.04669474468855        6.66803343959276
C            5.21866590865687        3.94346606971955        5.83204720435526
C            4.07220170641364        2.99514856337542        5.75926519572669
O            3.39431083362455        2.92214720357028        4.74659696615167
N            3.81336981144571        2.18505763436389        6.86416375181922
C            4.71636956405107        2.15035313951080        8.01384096626346
C            2.67309456059489        1.28898331730670        6.83782126636086
O            8.78454254007633        4.51568741257707        4.68402117291292
C            8.75734515231313        3.34285364467216        3.91151801562897
C            9.73785941372859        2.51525268784271        3.03459349778136
C            8.67311547058186        1.44986396604252        2.65547100641074
O            8.63164408122569        0.27435153713904        1.89258222882501
H            0.56703398119378        1.14598751278107        2.67384243115451
H            1.74510217714942        1.90059666907801        3.74514333053849
H            0.89062253450787        0.43824091768877        4.25363733028296
H            3.84891144621518        1.30694659920840        3.59082771650301
H            3.75471939530935       -1.66435100857551        1.53750261253429
H            5.66145634381194       -2.73912944809607        0.44573655815786
H            7.90095148016657       -1.75688299056968        0.67375454633494
H            8.16741920394191        6.37696221003249        6.22844567115436
H            6.07649839869808        6.78043172505422        7.44997124759537
H            4.20539836631395        5.20619141746730        7.21356523385130
H            5.74511158760849        2.29615810153978        7.69146808914773
H            4.65031929558693        1.18854570130559        8.51790552851438
H            4.45062176099494        2.93516883136668        8.71859556122615
H            1.83497387786130        1.78385824412243        6.35175457515185
H            2.37733353142315        1.01478277692282        7.84872560238514
H            2.92449364936340        0.38809119098729        6.28188788539969
H            7.92272833794110        3.58412287303999        3.23263215625717
H            8.41587985767172        2.62141914404461        4.67260236201470
H           10.57911634572837        2.10303424076487        3.59810962395779
H           10.12051381724842        3.06956490082269        2.17349274059655
H            7.87254793998766        2.03048419068057        2.16844960419376
H            8.31047204832630        1.06404398603300        3.62219088893083
