59
 energy: -11.952748719704 gnorm: 0.000570217548 xtb: 6.5.0 (97a52f5)
C            2.55765462347635       -1.17709547403725        0.15294262519541
O            3.47425466633588       -0.97955352182977       -0.90034353046198
C            3.76758953234546        0.34044058291918       -1.17376363943337
C            4.67656900234266        0.60617482744982       -2.21618001630141
C            5.01925419777231        1.88440121149668       -2.55264899905291
C            4.47514946332855        2.98637367967404       -1.87237567199744
C            4.84241019101318        4.33704608452124       -2.23335530676235
N            4.24948571832138        5.51495080536996       -1.87763256129312
C            4.88535220238227        6.59713148690724       -2.44949526670783
C            4.48792807007962        7.93734358775842       -2.30525571225630
C            5.21079749904620        9.04106337821552       -2.96664213002817
C            5.58140153063074       10.18375945128553       -2.25189973180275
C            6.25200853672258       11.21958309103043       -2.87253008397730
C            6.56209027183851       11.13530659404878       -4.21362572909472
I            7.56980333794685       12.69864561967402       -5.14507511824935
C            6.20495207276477       10.01879260431773       -4.94008939672297
C            5.53473751163286        8.97939570966169       -4.32502457469580
C            3.33146379366057        8.17160294472016       -1.54185475919829
C            2.63130343648331        9.39366618673125       -1.33379946414895
C            1.51728893598837        9.12252653017986       -0.59526431988701
C            1.47878610365270        7.72510805448272       -0.30766222365834
C            0.44075821337950        7.04812631191359        0.43606487525129
C            0.60246633915259        5.73459812890417        0.89518606714546
C           -0.38109710371792        5.09476286035087        1.59080161902178
C           -1.60227895665555        5.73309273494541        1.88048077440135
O           -2.54689652026815        5.01665302050515        2.58614264084494
C           -3.74872530831346        5.70884426647084        2.84002402655719
C           -1.76414013683963        7.05754385888862        1.42869415841257
C           -0.77341922888428        7.69035478467670        0.73200122859890
N            2.59020085563516        7.20010141027935       -0.90294397903133
B            3.04662005806471        5.72589888666605       -0.93326094785345
F            1.99016498969711        4.95181533467507       -1.39422767068180
F            3.44600608015952        5.37641795352953        0.35057238417002
C            5.97025001500650        6.05836624654700       -3.19754599511239
C            5.93493091751575        4.70049169105905       -3.07649390501482
C            3.57588227717713        2.71979304320173       -0.83134116541890
C            3.22702246266381        1.44546250807564       -0.48846192368441
H            2.40472777977024       -2.24957069483630        0.28089134806259
H            1.60265803145820       -0.71015852646947       -0.09274238137972
H            2.96063149440078       -0.76503522721577        1.07931485183448
H            5.09472673697603       -0.23072668259269       -2.74674229371740
H            5.70573067127355        2.05426382867172       -3.36285168256542
H            5.35206133160385       10.24075033005845       -1.20212824718416
H            6.54008486893869       12.09943191289651       -2.31779870106127
H            6.45108963080555        9.97036544554131       -5.98979832874279
H            5.23325975090506        8.11900524306737       -4.89643730491854
H            2.91899328904430       10.35645509060700       -1.72025760481529
H            0.79067484049865        9.85061384504977       -0.27714477886394
H            1.53313603196063        5.23719379900503        0.70179421430099
H           -0.24240886012915        4.08553249667123        1.93579936148808
H           -4.41895244536702        5.04665237170993        3.38994780137566
H           -4.22329168465896        5.98861859185537        1.89843874958159
H           -3.54741797790473        6.59241869229926        3.44731477094331
H           -2.68154266159835        7.57923389520588        1.63187461829710
H           -0.92915993637138        8.69725992235309        0.38732367330921
H            6.69604449011085        6.62694920093503       -3.75325064148405
H            6.63893449092760        4.01869389883176       -3.52251383054513
H            3.17145249256095        3.54908927657733       -0.28443031564562
H            2.53387198324702        1.28594681451756        0.31700014463376
