69
 energy: -13.833093353346 gnorm: 0.000598485596 xtb: 6.5.0 (97a52f5)
C           -0.47472006926235       -4.11196230270272       -0.70136906742948
O            0.42274522535302       -3.26330623297404       -0.02215530794784
C            1.28177266467295       -3.90545677679080        0.85955995195056
C            2.16469837849192       -3.10766043619799        1.60304048395213
C            3.02863874074996       -3.66153599056860        2.50539496908066
C            3.06531969389656       -5.04186965107771        2.72877794648205
C            3.96066873785294       -5.62033073556305        3.71507041313619
N            5.17032850761878       -5.15831438614850        4.10884412204336
C            5.79217739979067       -5.97520475521103        5.03910383671854
C            7.05481338512930       -5.75925783121133        5.55084616149009
C            7.78633575617027       -4.68954196494517        5.07858518663762
C            9.13877782383846       -4.30103890783522        5.38015225358408
C           10.08321242570924       -4.81240360327222        6.27089275848680
C           11.29723963303574       -4.18774944406974        6.37303407915252
C           11.61425726798130       -3.03726492610285        5.61458555983010
O           12.87019279699531       -2.47216543803248        5.82060817463432
C           13.13770210716410       -1.32095115851290        5.05332428276975
C           10.66380849353888       -2.53569215337453        4.72039278751549
C            9.43709117783919       -3.17358359033552        4.58579371280680
C            8.26421450457954       -2.86833043166886        3.77963360350502
C            8.14916216673103       -1.82872006551391        2.77241612071045
C            9.26356718136598       -1.39550472601750        2.04123984948763
C            9.14973224931523       -0.41343823884501        1.09611703815128
C            7.91539144175259        0.19475233553890        0.81952545844431
O            7.89130124354540        1.18609241417696       -0.15216458478065
C            6.62370472089247        1.75481369900464       -0.38867002202679
C            6.79670575353973       -0.24835234368137        1.54194758081289
C            6.91708261285233       -1.23144417473995        2.48478525630754
N            7.33114872792564       -3.78152195888063        4.13648123163823
B            5.85937098113616       -3.84667790146096        3.67018787098766
F            5.18507998425058       -2.79119004115614        4.27349394313234
F            5.82788085419700       -3.77717872030219        2.28552412411223
C            4.87817269910633       -7.05873503005667        5.28619969636376
C            4.94282824824857       -8.16154597395401        6.13858013912001
C            3.87744493405540       -9.02005348225389        6.18607466011096
C            2.71478497257544       -8.81489747332191        5.40805311745480
O            1.68724805738988       -9.74382466335256        5.55131534568674
C            0.55749256689697       -9.51034886023116        4.74203678720979
C            2.65998009673609       -7.70788631194126        4.55597102127365
C            3.74370303912285       -6.84246769831058        4.47553725775591
C            2.20163750356398       -5.84195862610319        1.96744248276754
C            1.33396060720587       -5.29362951341053        1.06189378168377
H           -1.11754665213718       -3.49836533464637       -1.33414965580050
H           -1.09511020697300       -4.64878959854560        0.01822760205334
H            0.07877522061788       -4.81061824590575       -1.33070930719031
H            2.14272370253117       -2.04377246648539        1.44598094999979
H            3.70077444922176       -3.03738829984410        3.06307254333465
H            7.47956389898421       -6.43965854231807        6.26433917438151
H            9.84778037676948       -5.67655286136133        6.86631944801732
H           12.04245765691818       -4.55865907141979        7.05398550886752
H           14.14212930308092       -0.97076462375049        5.29569539229841
H           12.42085982589364       -0.53598640429611        5.29901931297704
H           13.09420498013655       -1.56425054117184        3.99070095878625
H           10.85997613241861       -1.64054366366772        4.16538100285066
H           10.21162925645336       -1.87863455645125        2.19564076294192
H           10.00918968635077       -0.09049553652348        0.53580339102696
H            6.25126627210758        2.22439599012366        0.52302425598229
H            6.72685264764641        2.51676877915315       -1.16272535782298
H            5.93155164577963        0.98687713942732       -0.73774829843559
H            5.83183124128102        0.18403967821053        1.35016982720203
H            6.05213041111869       -1.57159740717350        3.02276627141527
H            5.81579589828312       -8.32060353804446        6.74630466032595
H            3.90021395377813       -9.87768800773520        6.83458179860965
H           -0.16424842318737      -10.30958239902386        4.91866677613326
H            0.84522201661401       -9.52004463317378        3.68945450642504
H            0.10101309148211       -8.55564733068893        5.00841354811121
H            1.77284325910525       -7.50194960567242        3.99192095453721
H            2.25703081365861       -6.91104165756512        2.06856484870238
H            0.68959424845210       -5.93843919005914        0.49280505944885
