92
 energy: -17.479493068094 gnorm: 0.000522658675 xtb: 6.5.0 (97a52f5)
C            0.03643054156402        1.63855891041545       -0.59476346534137
O            0.70723632699874        0.99276378668669        0.46231520809202
C            1.47460871775425       -0.10923404593684        0.08660310022255
C            2.17305918738509       -0.78452180077199        1.09367970870443
C            2.95258809711378       -1.87485610924012        0.80912906047176
C            3.07400057413665       -2.35695351513629       -0.49455082367698
C            3.89763592214742       -3.52659224686977       -0.79891100439474
N            3.77745782435384       -4.36981298295510       -1.86311719989362
C            4.70455013505006       -5.37588533560193       -1.84157823954741
N            4.81329206555533       -6.43051188524629       -2.65256803786521
C            3.86291538821605       -6.47882989584833       -3.58798137843930
C            3.62898904720211       -7.55790641787781       -4.51244027968989
C            4.34408549757544       -8.83145354278621       -4.55281575157179
C            4.16722472585272       -9.72063384688448       -5.60709288194739
C            4.77441703218242      -10.96559140579012       -5.65446458107235
O            4.49744354172188      -11.72297807992714       -6.79722687376734
C            5.12662924640180      -12.97434962617172       -6.88073461846691
C            5.60511040928312      -11.37212572653909       -4.57015240747180
O            6.18203395869306      -12.62592358723885       -4.64781695268650
C            7.08845225769460      -12.97058438695396       -3.62994815631990
C            5.79266114577045      -10.47150207630616       -3.47800269118917
O            6.56394279280810      -10.89093488448126       -2.39335252228819
C            7.05331966075361       -9.86586081608987       -1.56417304852011
C            5.17921617876469       -9.22512548574367       -3.51019481888188
C            2.53581165872230       -7.19657386211940       -5.29343625161784
Br           1.77311254231513       -8.21299499696295       -6.68797751055523
C            2.07669786139360       -5.92824230669531       -4.87726221967831
C            0.91006857557253       -5.21050826084008       -5.39286471997136
C            0.79155870999679       -3.82805607563508       -5.25756216750542
C           -0.30894676145761       -3.15564815930615       -5.71778935196856
C           -1.36045124608913       -3.83314660377066       -6.34408796755135
O           -2.44747948533026       -3.07590841617839       -6.77940726493527
C           -3.47834949786944       -3.81356261942201       -7.39391360166039
C           -1.24385963698394       -5.22033773987297       -6.48647506578624
C           -0.13662857304820       -5.88424755315485       -6.02438889632066
N            2.90029309768444       -5.54522279767218       -3.86259248273634
B            2.82984681524361       -4.25051967847549       -3.05455768394518
F            1.53564281520395       -4.07068463351388       -2.59519271418467
F            3.26144840180711       -3.20078443597664       -3.85237160827039
C            5.50571346646664       -5.12973177804359       -0.67299971788733
C            6.69291623239135       -5.88957407578283       -0.29128419891644
C            7.44045162838688       -6.54551484875487       -1.26070154869930
C            8.60745022681030       -7.22863473409429       -0.96051979544506
O            9.26212307596884       -7.80854021994902       -2.05254754263351
C           10.57419696324862       -8.25082706449830       -1.81929479147906
C            9.03659679091120       -7.31404106232621        0.39707670020527
O           10.17007319573725       -8.06222519429537        0.65152163310810
C           10.56548907298661       -8.16911609729631        1.99588999654022
C            8.27107034292324       -6.64760822487051        1.40187888004709
O            8.69194844243266       -6.72101108336293        2.72864399139997
C            7.90373359914778       -6.01568982601936        3.66160848781247
C            7.13074206398666       -5.95020187336092        1.02707251340973
C            4.98948649302520       -4.00430999039708       -0.04161334667935
Br           5.70644337435662       -3.20318606731738        1.51059950631737
C            2.38010402629211       -1.68020595275998       -1.49702432394816
C            1.59959575327909       -0.58797105335280       -1.22233310331465
H           -0.52072947189364        2.48157590446828       -0.18361779850404
H           -0.66297077962889        0.94715558049371       -1.06698673841760
H            0.76067360699574        2.01213373070143       -1.32014279021818
H            2.08543388162581       -0.42174746493574        2.10247789972748
H            3.48394252482329       -2.37288546008542        1.60038921835203
H            3.52640203206334       -9.45285569388096       -6.43205933373532
H            4.84109856782444      -13.45319498533344       -7.81847774120891
H            4.80852438491851      -13.59253842471952       -6.03956532750859
H            6.20858583167254      -12.83535173171814       -6.85194900571187
H            7.51364057792022      -13.95095507337329       -3.84931455111564
H            6.55910741266412      -13.00445648471346       -2.67625815532470
H            7.88420324677989      -12.22512101427035       -3.58863945783113
H            7.74479497911511      -10.30199405614261       -0.84223326380420
H            6.23429524402986       -9.38832382405736       -1.02559861931887
H            7.59339749242376       -9.14717666281280       -2.18063189803031
H            5.31716413949585       -8.54665948626865       -2.69172330720792
H            1.58317362687990       -3.29238314343745       -4.76952364215187
H           -0.38919595138075       -2.08937836187550       -5.60123330177343
H           -4.27040565589877       -3.12142406543124       -7.68328051486628
H           -3.88353981649758       -4.54171124794806       -6.68972078108228
H           -3.09680305034841       -4.30994318344474       -8.28736158346078
H           -2.03014525212276       -5.77543518734144       -6.96425563471188
H           -0.06850968271959       -6.95150545024713       -6.14382073698848
H            7.11856662853482       -6.51602623616263       -2.28498515114326
H           11.03199108543840       -8.51989358596040       -2.77225275466602
H           10.54715296399762       -9.12399187945950       -1.16569493756764
H           11.14711427053926       -7.45128910359671       -1.34686830173277
H           11.45943713997598       -8.79147882980298        2.05519673274914
H            9.75922977022735       -8.62636869857422        2.57181428720193
H           10.78303898386175       -7.17330583530320        2.38559850619107
H            8.34993932489354       -6.13806371912474        4.64936201631975
H            6.89265964517769       -6.42502075869078        3.67805758492379
H            7.89082879526137       -4.95460957124719        3.40848452023957
H            6.55023168195858       -5.44294801933471        1.77219661137849
H            2.46889761390511       -2.03696489403445       -2.50590907832303
H            1.07719390696491       -0.09759079285152       -2.02312814817969
