80
 energy: -16.748139826114 gnorm: 0.000404576487 xtb: 6.5.0 (97a52f5)
C            0.67355793631384       -0.38298441632763       -2.36476891329579
O            1.38076535789004        0.47073800342564       -1.49355348178772
C            2.05418659101820       -0.17091091083544       -0.46981178032186
C            2.80405714814773        0.62119624654464        0.41698966949755
C            3.50483005049065        0.06219604480451        1.44814917487846
C            3.49877301211438       -1.32030674508165        1.67144157969386
C            4.24335238718682       -1.91622404775553        2.76636865904081
N            4.09770868004377       -3.17883124782449        3.28382949590526
C            4.96877761840336       -3.41918093896496        4.30747963881319
N            5.05527740898643       -4.48632996808228        5.09997250993879
C            4.11489883512877       -5.40225881046650        4.87156453531827
C            3.88264532927197       -6.58172331827684        5.66776802441782
C            4.64565029741230       -6.94858988334000        6.85906477624925
C            4.47781175569343       -8.20012349369718        7.49675772709893
C            5.17967180206022       -8.53405946216392        8.61093568170262
C            6.10357482251934       -7.62791188469963        9.18168252274556
C            6.84503295345735       -7.93173171560583       10.34255628914905
C            7.71975966864665       -7.02503035705901       10.86416071455779
C            7.89577342580170       -5.77621613015887       10.25625469470769
C            7.19716125618672       -5.45117647853696        9.13384070771767
C            6.28501312328468       -6.36792213910702        8.56508358279024
C            5.55022865203088       -6.06486504161549        7.40652010301094
C            2.78791954054278       -7.23853490964596        5.11926634222408
Br           2.05027368402779       -8.86184419455266        5.74448255791361
C            2.32590078807240       -6.49922987126045        4.00341103355521
C            1.16504408537676       -6.80172292078772        3.18359679088703
C            0.98757210446835       -6.21428944674890        1.92610552501821
C           -0.11980669213752       -6.46606976414556        1.16775590539544
C           -1.13090937243299       -7.33091983964253        1.62092911904340
O           -2.22682153482960       -7.52462425266588        0.79948005756310
C           -3.21858756879530       -8.37758144893948        1.32535512064815
C           -0.95013443894664       -7.93415740311182        2.87798028300892
C            0.16479906844215       -7.67706256892752        3.62640806801860
N            3.15680698628905       -5.41298527365144        3.89881374589095
B            3.12138772817654       -4.28260841139818        2.86498983523648
F            1.84116598152064       -3.75304159362425        2.82236411257982
F            3.53117777211045       -4.79342090907069        1.64203209431647
C            5.74692166443850       -2.21554010224459        4.45137260931511
C            6.82589036822704       -2.03085505654538        5.42226149227294
C            7.53857121646748       -3.15246484410774        5.90995762560182
C            8.54893373137267       -3.01849974687036        6.80697679324366
C            8.90321912172080       -1.74441012902770        7.30782525979808
C            9.92812523690065       -1.56719280095276        8.26041467728571
C           10.23701070710209       -0.32292215863061        8.72420656345740
C            9.54269439330817        0.80042110504090        8.25970504979362
C            8.54939825195422        0.66604701533280        7.33783139821636
C            8.20111899895022       -0.60911231359433        6.83698928089467
C            7.17860983326590       -0.78275595962039        5.88599646709079
C            5.27642547263679       -1.30330784359166        3.51665172040027
Br           5.97079874305472        0.43847024333379        3.28668567843340
C            2.75351534236445       -2.10636740550345        0.78516455484221
C            2.05087991096016       -1.55957260421824       -0.25138358341814
H            0.19863927202207        0.22621004874386       -3.13508123364084
H           -0.09892706685000       -0.92053404442579       -1.81299283591819
H            1.36258240184546       -1.08160289699562       -2.84171739144528
H            2.81736401173059        1.68487703192273        0.25815969938429
H            4.07877438030162        0.69226568484150        2.10557077812188
H            3.76933831018482       -8.89918058747359        7.08207033304712
H            5.03510565649068       -9.49312992944125        9.07722832487372
H            6.70946705425023       -8.89028634656579       10.81259687708116
H            8.28062097139627       -7.26793826135532       11.75164066756795
H            8.58930775596211       -5.07001197426125       10.68212152045523
H            7.33274460091326       -4.49258523015322        8.66551790060902
H            5.70130640694781       -5.11240640266320        6.94020746066149
H            1.74846752205558       -5.55196765301820        1.56082640080700
H           -0.24353486077373       -6.00074789654316        0.20602365586751
H           -4.03484563203926       -8.44397861060901        0.60466834217887
H           -3.60437616409542       -7.96696653948453        2.25966757209391
H           -2.80558121234693       -9.37469497691305        1.48448177408115
H           -1.69653414609651       -8.60758638616452        3.25749799827481
H            0.28129861387897       -8.15198642360490        4.58588400364161
H            7.26923633566102       -4.12538771799947        5.54102333426501
H            9.09517282736573       -3.88150565011783        7.14622306529312
H           10.46349788556844       -2.42965932920722        8.61772926253558
H           11.02083200162189       -0.19983776336049        9.45336903854643
H            9.79849237372401        1.77709991449303        8.63640168849521
H            8.01594936285589        1.52996402297106        6.98103440274912
H            6.66267021274481        0.08341226672624        5.51655865413468
H            2.75381297509628       -3.16972973973770        0.92727234842068
H            1.49174891300221       -2.20138250535850       -0.90720573251227
