68
 energy: -13.965213079549 gnorm: 0.000917529820 xtb: 6.5.0 (97a52f5)
C            1.26775961722261       -0.97512578748023        1.72293009029684
O            2.10864659023928       -1.11033824235335        0.59946538594161
C            2.64786009532242        0.07276133458366        0.12997820860006
C            3.50367822482888        0.00371200576183       -0.98338086997511
C            4.07703937226251        1.12732176979431       -1.50721974101174
C            3.83331803466198        2.39566283263388       -0.96481893942601
C            4.42773268818822        3.59073333982777       -1.53610119789609
N            4.05159341629695        4.89360060997970       -1.32810289503023
C            4.80276985106175        5.77023150130340       -2.05803987328808
N            4.70590018106395        7.09789760855555       -2.12155950255251
C            3.68466758472001        7.59890177633154       -1.42741233186409
C            3.28346339151860        8.98344205203552       -1.41016675419929
C            4.00247498076250       10.07512253488506       -2.06978457566430
C            3.42180579337551       11.32605617230034       -2.27355190307531
C            4.11315130326923       12.33949712054917       -2.89705065210045
C            5.40795572089242       12.13222183681700       -3.32740330731244
C            6.00723558490938       10.90489379839429       -3.13159192525081
C            5.31144503505655        9.89185135081403       -2.51453311569091
C            2.12471899863327        9.06739435228177       -0.65086215742348
Br           1.18046736877205       10.66121208856448       -0.28130305248137
C            1.79985620538501        7.77480743755466       -0.17082445624466
C            0.66053544733571        7.42298751572423        0.65727972718902
C            0.59830648160238        6.20011256316405        1.33484898555158
C           -0.47846670336916        5.85960591490636        2.10232271456704
C           -1.57239971448137        6.73015142940324        2.24883850728082
O           -2.62386429006205        6.31110385762892        3.04223056226993
C           -3.68232457192501        7.23458181628429        3.16115640354188
C           -1.50988157796553        7.96461691145787        1.57863738010957
C           -0.42590303996414        8.29391992370734        0.81353655001631
N            2.76752250880185        6.93602736771445       -0.66276418706441
B            2.94044581161191        5.43355843995972       -0.42303216928914
F            1.75606711536310        4.78754626763770       -0.73822255186811
F            3.31772323296993        5.24524170913172        0.89806951963223
C            5.74382967677059        4.96312641650672       -2.79359436941774
C            6.73957425903983        5.47751554848989       -3.73640256256563
C            7.81098367109186        4.70092265604243       -4.17621021364750
C            8.73730298965824        5.20128895617135       -5.06262574561354
C            8.61356402635190        6.49031445320556       -5.54061973309400
C            7.55952397647821        7.27768340118183       -5.12355446026821
C            6.63998330899284        6.77741420254678       -4.23165465375787
C            5.49731414234208        3.63794439536167       -2.46335675200070
Br           6.44419452930846        2.15399065560260       -3.14816094271874
C            2.98749629921585        2.45955829090069        0.14881587572991
C            2.40931458338153        1.34301553530997        0.68347314330849
H            0.90820396105705       -1.96530914698559        2.00564253543987
H            0.41240163253588       -0.34576161231664        1.47259833299277
H            1.82800512552381       -0.55108146242927        2.55754860562783
H            3.69841019800087       -0.96300757757666       -1.41293792808394
H            4.73252404993167        1.04291436652796       -2.35903076772259
H            2.41531815947919       11.49688384609975       -1.93054384265977
H            3.64418110712949       13.29824944746145       -3.04615546585489
H            5.94990569343550       12.92658677496702       -3.81381925206474
H            7.01884893482090       10.73988346268406       -3.46415194373238
H            5.77681185323670        8.93710178383805       -2.36087913022496
H            1.42983291135106        5.52755209090825        1.25278695594552
H           -0.51049233283398        4.91445195278602        2.61473703227520
H           -4.44755373642576        6.80029291768396        3.80599695339415
H           -4.11604295458573        7.43081929795696        2.17985618096023
H           -3.32014728293112        8.15814399979729        3.61442515110773
H           -2.32203484322012        8.66210346684730        1.67066484498539
H           -0.39853570286282        9.24919569328684        0.31520494762617
H            7.90733240704060        3.69096043749142       -3.81443329647985
H            9.55851431116326        4.58359063158884       -5.38826608905666
H            9.33641011293145        6.88026581849925       -6.23837287187377
H            7.45841617572504        8.28437232883264       -5.49510587897155
H            5.82090552365318        7.38906366320809       -3.90536368920685
H            2.80519419482846        3.41829287006277        0.59327746639151
H            1.76713830000492        1.43971922759421        1.53980368695880
