110
 energy: -21.857911924453 gnorm: 0.000634934842 xtb: 6.5.0 (97a52f5)
C            5.31713684055348       -0.29656572866491        1.19329714235972
O            5.32937549067636        0.84086665073265        0.35886842790450
C            5.41980234161145        2.04868552188414        1.02739124039962
C            5.45217122390461        3.22318378096218        0.25280702692200
C            5.56568835517002        4.45347086407409        0.83431934289903
C            5.65955870474797        4.58972000711189        2.22822087605542
C            5.77754993051952        5.90115812382774        2.85218004923098
N            5.04486575523875        6.34634772709766        3.91236079673748
C            5.18920736993383        7.69254786417306        4.13855440371649
N            4.52407389056092        8.46497335077043        4.99199638572481
C            3.58160915850445        7.80138066484725        5.66690535407121
C            2.55445614862111        8.41180338682609        6.47152240920987
C            2.24692784448409        9.84798569297097        6.56668127932585
C            2.00935357622840       10.40860938842967        7.82373479421494
C            1.72472201158075       11.74493659184586        7.96733787245352
C            1.65978730329538       12.55994732895059        6.85400385142894
C            1.86763718482719       12.03098418778925        5.60067176265356
C            2.15134884825202       10.67916746543955        5.42080882707733
C            2.31397864810299       10.15037174755894        4.04512794393777
C            3.08485125656643       10.82996573680495        3.10593380048442
C            3.31269961437059       10.29781669387763        1.85617173387788
C            2.78888821024336        9.06515451508227        1.48987700173161
C            3.07968490011049        8.48150068596199        0.09798063586321
C            2.24792991707159        9.24393419762141       -0.94717994982231
C            4.57795630678811        8.62251321822818       -0.23504409445835
C            2.72235148341807        6.98253619533215        0.03338772188070
C            1.97216229567070        8.41460699088184        2.40610434189197
C            1.73129196987994        8.94808074809601        3.65239087579399
C            1.81313095283300        7.38288698420279        7.03229699334004
C            2.30799938620650        6.14735442091185        6.57040947952735
C            1.75957691739943        4.84515176939488        6.89487690427699
C            2.41983663615027        3.66439091020869        6.54062766333519
C            1.90273179474182        2.43728579912926        6.84537328159743
C            0.68329167116564        2.31191352852248        7.53331403450419
O            0.22497809478629        1.03344277493945        7.80456928763212
C           -1.00354224863807        0.97990940924998        8.49628547781056
C            0.02046275807895        3.49803884237587        7.89613534584649
C            0.54516173521562        4.72314774125979        7.58580909797741
N            3.35790573652039        6.45117039445974        5.74093892372281
B            4.16742565039193        5.50522952763705        4.84346250215773
F            3.28719721803376        4.75202017617639        4.07802360169913
F            5.00019107420085        4.72112367121312        5.63215622979092
C            6.13701839698011        8.14205485775443        3.16042087782643
C            6.52301574161635        7.04380633337927        2.39015056955989
C            7.53343925410986        7.19490070757361        1.37028128755962
C            8.09652066538236        6.09111138821068        0.71788166417568
C            9.04400876048867        6.22511330870054       -0.27085134709403
C            9.64621452636931        5.01536219924287       -1.00319292351667
C            9.15561394897208        3.68141502160266       -0.40533154791536
C            9.23313971184443        5.06751718434721       -2.48506888130706
C           11.18196684945683        5.05649356547504       -0.88922206695105
C            9.44535069700704        7.51737064334242       -0.61267137396469
C            8.94995750659175        8.61691279537422        0.04005201158787
C            8.00027547466786        8.49562467094065        1.06134371786112
C            7.52586692870059        9.65217025819678        1.82341452646795
C            7.95287810691057       10.96099345144020        1.55816566860260
C            7.52082833798186       12.02093926790950        2.31556931962903
C            6.64536857213381       11.82001710820122        3.37405530709787
C            6.20502299703375       10.55779598181375        3.65825040079432
C            6.62400188376241        9.46247631750028        2.89602324234287
C            5.58482241064439        3.42457127894742        3.00298297477178
C            5.47847199384061        2.19043649849312        2.42669646168278
H            5.26120750139011       -1.18796272561193        0.56703651617685
H            4.44469430588183       -0.27054074569375        1.84764116723960
H            6.23457536540183       -0.33764577931233        1.78217761946335
H            5.38626963362648        3.12739620826183       -0.81638927531261
H            5.57328085265141        5.34022931009931        0.22423005121554
H            2.06772649734644        9.77440953351246        8.69159659612280
H            1.55346004231925       12.15802675954576        8.94794104989246
H            1.43768615388364       13.60857138952917        6.96664586339674
H            1.78968016614900       12.66476254728936        4.73417914392722
H            3.53387869876048       11.76881071575389        3.38002661068027
H            3.91904704206902       10.84458403886108        1.15600360825309
H            2.49790411755134       10.30422296256896       -0.94538673196759
H            1.18340260221000        9.15057934545405       -0.73544241820848
H            2.42917666800244        8.85690156411597       -1.94919578247991
H            4.88294095436852        9.66549281360363       -0.29512380432962
H            4.81039962442399        8.15763574305261       -1.19242555088131
H            5.18365665704409        8.13816611901357        0.52748935683831
H            1.65049711842046        6.82500925156348        0.14470460108922
H            3.23706444623243        6.42737355276549        0.81715079307719
H            3.01474720699241        6.55573715853289       -0.92541893087433
H            1.52821495321300        7.46900035848052        2.15176758931593
H            1.10988255191802        8.41757151427322        4.35270544768197
H            0.95949187606228        7.52407551635412        7.67075321971338
H            3.35813908723595        3.73772940899399        6.02585711568599
H            2.42250538063689        1.53847334935491        6.56462092370839
H           -1.27028635367638       -0.06610713369282        8.65312442256022
H           -1.78630443571929        1.45750776814273        7.90534553387746
H           -0.90708603422079        1.46746916676972        9.46740848909162
H           -0.91374150724371        3.44341074367633        8.42449729118612
H            0.01271621900250        5.61329427375030        7.87005682645724
H            7.79262687031773        5.11182540704547        1.02957963801040
H            8.07617149815639        3.57973475740436       -0.50479403012264
H            9.41547783601395        3.60499943211985        0.64984087493345
H            9.61182842986745        2.83631926493589       -0.91964093763541
H            8.14822614208312        5.04949430164212       -2.58244810240835
H            9.63593248312004        4.21600950172093       -3.03230308184682
H            9.59720957471980        5.97528103657358       -2.96386871180376
H           11.49001142997082        5.05261151364341        0.15567420099309
H           11.59217984332358        5.94994623876614       -1.35678030358794
H           11.63155959691814        4.19212120715920       -1.37662586588184
H           10.17030092206938        7.65058425226633       -1.39661263921668
H            9.31052203091788        9.58997467986169       -0.23860470799768
H            8.63291297527798       11.14617525457514        0.74716438256959
H            7.86452582158915       13.01736069120995        2.09042230648399
H            6.31000963699421       12.65694359196089        3.96439359934807
H            5.51174597263839       10.38755910638422        4.46131072690402
H            5.59311120382318        3.52551647159675        4.07315252176198
H            5.42950361691176        1.31857617579656        3.05296222067012
