54
 energy: -10.609366272275 gnorm: 0.000633992007 xtb: 6.5.0 (97a52f5)
C            1.90816673902969       -0.96247820615240        0.69664915089002
O            2.78205986316150       -1.15811368325309       -0.39224701225251
C            3.18440002542760       -0.00173384235273       -1.02980960690283
C            4.06494221278583       -0.13021462720760       -2.12066121881415
C            4.51418690089482        0.96306217767749       -2.80508469600293
C            4.11020382825045        2.25923638067915       -2.44826077064540
C            4.58733788438782        3.41485592565375       -3.17557546818996
N            4.11640026951334        4.69568471109972       -3.14709836606618
C            4.81204000557024        5.51804632162495       -4.00124660599273
N            4.60890358463854        6.80630881461370       -4.27797204216950
C            3.54305594889281        7.31235871199827       -3.65768387877547
C            3.03360303209625        8.63683119931519       -3.84453720391009
C            3.61491163906124        9.66988261601269       -4.73070825325755
C            1.89866399108168        8.75568072424118       -3.08610763364950
C            1.67162436647841        7.53619205922847       -2.39114334630212
C            0.56674575731137        7.26514230859220       -1.49827793927952
C            0.55052899230553        6.13472126390001       -0.67208733123964
C           -0.49610498282321        5.87620589900576        0.16421509056285
C           -1.60423286587367        6.74070988261823        0.23262538682466
O           -2.62391220766487        6.40609328121919        1.10102263465239
C           -3.71222088601126        7.30227525394014        1.11287396007852
C           -1.58726255471763        7.88250988627465       -0.59118184507856
C           -0.53443288050421        8.13355423752746       -1.42591294783927
N            2.68732380408994        6.70608313146857       -2.76895258784435
B            2.95702572562326        5.26555335437269       -2.32490095821328
F            1.82467169838147        4.50081151944553       -2.55704202240336
F            3.32414804385019        5.27828174210491       -0.98776503100450
C            5.81135652569659        4.69211327740695       -4.60685884673903
C            6.80283912000271        5.14292243398486       -5.60983941006869
C            5.65852966779246        3.42357067041176       -4.11000133645038
C            3.23719311874240        2.38576889702472       -1.36041945275324
C            2.78357617203828        1.29861689620844       -0.67003244466132
H            1.65783120400070       -1.93743345701524        1.11723843460983
H            0.99205083671166       -0.47814813462988        0.35550894746192
H            2.39936560290690       -0.36171066163536        1.46350783808201
H            4.37592830058256       -1.12000579188327       -2.40420350194034
H            5.17754884324895        0.83078307992031       -3.64123536833529
H            4.59526380494322        9.36010016421063       -5.09306839607958
H            3.73443722528271       10.61519726276943       -4.20072475320186
H            2.97453290099494        9.84326353479307       -5.59586271959563
H            1.29412061002352        9.64324166543248       -3.02308181297759
H            1.39423627065640        5.47246430313872       -0.69459017580953
H           -0.49445332956549        5.00297438807718        0.79212001169537
H           -4.45236337473710        6.93608690732031        1.82575712989744
H           -4.16669425033992        7.34665150509300        0.12204384214213
H           -3.37652207651522        8.29140487443603        1.42773208474768
H           -2.41448455486346        8.56779598194481       -0.56514635660224
H           -0.55247405406226        9.00753494491452       -2.05248839946337
H            7.49099797361791        4.33874369975635       -5.87162371356250
H            6.30514072626332        5.47269186725863       -6.52194650971857
H            7.38937032607923        5.97694278960515       -5.22430117698605
H            6.27029780299892        2.58038061789210       -4.37823256568953
H            2.93678128186352        3.37151148697732       -1.06185435251720
H            2.11552539040306        1.44096575293630        0.15948354734146
