82
 energy: -16.599299612106 gnorm: 0.000423960447 xtb: 6.5.0 (97a52f5)
C           10.89193752439640       -3.66525187065421        3.33263079436660
O           10.05221346328420       -4.13151058368088        4.36393296160885
C            8.92972515728906       -4.83067367447891        3.93473632644425
C            8.01169753750337       -5.24533791896674        4.91202415365012
C            6.86894435596534       -5.91443994191282        4.57232874561177
C            6.58167106135322       -6.21608485420341        3.23500046999215
C            5.34183712939573       -6.85872068496262        2.86701160194514
C            4.27590480956804       -7.13739088430995        3.73961468209827
S            3.82300629209402       -7.06098928624771        5.42039301650311
C            2.22013936191247       -7.73642121551261        5.11268152621853
C            1.25935319555286       -7.99414811486586        6.16862982949744
C            1.58167400261288       -7.70338372873359        7.49655516615071
C            0.69816930198414       -7.95341219015998        8.51243457477785
C           -0.56084513787093       -8.51109332583244        8.25630452556116
O           -1.39564526924100       -8.73996303559256        9.34665614983610
C           -2.64404713510881       -9.31087935707154        9.03026446484099
C           -0.88611270615285       -8.79917399158176        6.92402306978459
C            0.00116912116085       -8.54687317533729        5.90939142108175
C            2.04686059026267       -7.97093587815948        3.77430638583910
C            3.19596542437653       -7.64043950737458        2.99985118756182
N            3.60171035337201       -7.67058125497154        1.68598827571819
C            4.89917613275906       -7.24190102880396        1.54407021144200
N            5.63419138565164       -7.22543816619892        0.42968318322783
C            4.93812285146757       -7.58243327731961       -0.65213103014612
C            5.43838096612542       -7.64220618127981       -2.00823126182042
C            6.80724597395995       -7.52756584056020       -2.45364016183963
C            7.12891298856356       -7.56968865196252       -3.81614760328728
C            8.42991779020349       -7.51816846853272       -4.23289612674099
C            9.48590648978715       -7.43019336083680       -3.31252885739737
O           10.77965829079416       -7.40304089297176       -3.82074306192111
C           11.79969772996551       -7.38010986718372       -2.84856458677245
C            9.16174701504256       -7.38260810892683       -1.94790589443864
C            7.85783605081650       -7.42792860306143       -1.53683604716987
C            4.33005570912939       -7.91028205348130       -2.82960967204381
S            3.88056453940044       -8.12146382695096       -4.49950596725247
C            2.17411285925320       -8.35020053957122       -4.10408719850643
C            1.15004325602780       -8.53236738742924       -5.11538290383356
C           -0.19373916845800       -8.73132260799166       -4.78436832026179
C           -1.14602715504789       -8.86410872761899       -5.76076729778045
C           -0.81117656617573       -8.80326402709430       -7.12000837964112
O           -1.84476380011242       -8.92939636433671       -8.04418650941357
C           -1.45292196033025       -8.81432937548873       -9.39283116324662
C            0.53721355245044       -8.61498285796038       -7.45010083776129
C            1.48683903666671       -8.48424050709835       -6.47086859404032
C            1.98599733965314       -8.31253707472870       -2.74773507850099
C            3.18923388913991       -8.06014431494937       -2.02790715209615
N            3.59742017385700       -7.87353562739269       -0.72758941462297
B            2.72058379661373       -8.04581424336962        0.50394493351658
F            2.32072572223645       -9.36598140020892        0.61640427570702
F            1.63613533004040       -7.18881481489995        0.43346197357530
C            7.50365397247712       -5.81773168452750        2.26270275133159
C            8.64585985804241       -5.14306191774252        2.59629994153189
H           11.30688962097858       -4.50975747314104        2.78068932790038
H           11.70922416638789       -3.10020001606144        3.78304665392596
H           10.33141739607084       -3.00691460682609        2.66709796171599
H            8.22388729422294       -5.00859172033868        5.93952438534706
H            6.16608319396048       -6.20460011818196        5.33207791846482
H            2.54606477620708       -7.27873339037090        7.71326278091190
H            0.95606920561178       -7.72876375929547        9.53213697445021
H           -3.20526876853198       -9.44549147225614        9.95604971051594
H           -2.49817038753966      -10.28414031787650        8.55942987239633
H           -3.20134919043344       -8.64299718419342        8.37195808341526
H           -1.84434191648339       -9.22602010269628        6.69122900271759
H           -0.27220486522879       -8.78004222576870        4.89584856231660
H            1.15477597001495       -8.37742165703895        3.33156701280664
H            6.33380549907896       -7.65599385393391       -4.53432182603108
H            8.67222586073665       -7.55528355760225       -5.28014261725789
H           12.76315018147960       -7.38734817478427       -3.36023667642493
H           11.72849104062644       -8.26591740137152       -2.21549924536753
H           11.72313280308028       -6.47096260683412       -2.25052188261922
H            9.94483435451305       -7.31649008501314       -1.21515011108021
H            7.61943832425328       -7.40897974397120       -0.49030899886405
H           -0.48272171011493       -8.77629778044157       -3.74953701994889
H           -2.17938523809644       -9.01149028146297       -5.50113360203768
H           -2.34197137006603       -8.90535419045423      -10.01854240823941
H           -0.75707800734200       -9.61523951075968       -9.64697507471027
H           -0.99730072405103       -7.83792369362979       -9.56492380188412
H            0.83312866484350       -8.56856747900634       -8.48204031246787
H            2.51762147638340       -8.33220139177274       -6.73920220583261
H            1.03561112065261       -8.42094105090277       -2.25566079355018
H            7.28356733982770       -6.03365911964027        1.23446781123742
H            9.32743140476461       -4.84257975970829        1.82188703993250
