49
 energy: -10.385675125118 gnorm: 0.000853811584 xtb: 6.5.0 (97a52f5)
C            4.66393106841309        3.75255396993617        0.99853383387868
O            4.95207554979106        3.39442011864524       -0.33320535961321
C            4.43693457322925        4.26280670174743       -1.30338322621302
C            4.68897864503458        3.95674007338294       -2.64222586120886
C            4.21940522069864        4.75919301868791       -3.65312456219175
C            3.48453090351265        5.90001491791892       -3.37353564852137
C            2.97660316754478        6.78150907899944       -4.49447872992312
C            1.87612712166719        6.08532842119604       -5.32123176374062
C            2.44502153124569        5.08574190733182       -6.29255940321374
O            1.80677404083283        4.08058717304797       -6.51710480730597
O            3.66026156185776        5.35254818801468       -6.88738642982399
C            4.37903222304496        6.49165713480846       -6.51872821559903
C            4.09740616191322        7.22721981796650       -5.39231237487614
C            4.86739654270785        8.38115782045046       -5.03457365565932
N            4.53505851928636        9.03636759048469       -3.92762292481478
C            5.30002376147896       10.09842915729145       -3.64257080900546
C            5.02235184032130       10.85611714681106       -2.48273134213155
C            5.77153943526312       11.94397738026361       -2.15288314511026
C            6.84067252540419       12.33334874564483       -2.96370799334603
C            7.13925228976310       11.62786099516833       -4.08982694190476
C            6.38522457379745       10.49582868260474       -4.46770581184324
N            6.71231334094571        9.83435608563485       -5.59013870806907
C            5.95648035129880        8.78424410904942       -5.86159993632600
C            6.25351334197028        8.00825096185332       -7.04668980722189
C            7.31100895884630        8.36170387615332       -7.89037157466625
C            7.59462265596738        7.62529973551567       -9.00998428310747
C            6.82891055083889        6.50918696998105       -9.32219115293728
C            5.78666862298185        6.14359670607271       -8.51195764254261
C            5.47931142579250        6.88054032661835       -7.36668843581967
C            3.22542261520062        6.20999256371269       -2.04653149951133
C            3.69121151863141        5.41118761457263       -1.02842327977516
H            5.11555852016518        3.01181868133022        1.65997820222374
H            3.58451528454765        3.75730306261566        1.15592231108577
H            5.08979523959083        4.73223307112937        1.22044410093022
H            5.26150942399265        3.07344526473954       -2.86413190560766
H            4.41762834719720        4.50824255644134       -4.68095997023250
H            2.55174835707928        7.68951337935265       -4.03749110328992
H            1.28688651177153        6.81965750358417       -5.87836824720712
H            1.18282382669253        5.56555601202205       -4.65334301954571
H            4.19886483300936       10.55027242271168       -1.86165231358110
H            5.54266904239995       12.50805055484357       -1.26385156736204
H            7.42904687820362       13.19516834525181       -2.69462716460232
H            7.96184397589707       11.92243623778104       -4.71744173209788
H            7.89967428740695        9.22740587377095       -7.64279172518224
H            8.41281984281006        7.91082491612992       -9.65048046860756
H            7.05547673826453        5.93145758370815      -10.20317237741307
H            5.18514611158376        5.28143201497086       -8.74386415575026
H            2.65414326421720        7.09316595534009       -1.81703515244713
H            3.47693487587655        5.67755957470977       -0.00946221917761
