51
 energy: -10.086637454852 gnorm: 0.000838361457 xtb: 6.5.0 (97a52f5)
C            1.28169434569172       -0.46956118954423       -0.17080679915214
O            2.33612879558920        0.20656428596979        0.47382117583805
C            3.13622972957104       -0.59489830160546        1.29684244085341
C            4.19747863732228        0.02356705155862        1.96176254928400
C            5.03370008313133       -0.69003850789119        2.78708222528033
C            4.84462724644309       -2.05041687279005        2.97470882161222
C            5.74155531265005       -2.84716822814685        3.88170832498443
C            5.09276060858240       -3.17322341828875        5.23400438935712
C            4.97485162179516       -4.67398439663878        5.22555076022729
C            4.35897601034066       -5.46120184717535        6.27217347495121
C            4.30595520030866       -6.85153308396731        6.15579961916132
C            3.72740420813668       -7.62349879587182        7.13130541436276
C            3.17312972085544       -7.03369600073646        8.27075119552067
O            2.58011948325334       -7.78082401406258        9.27414524593542
C            3.22604620692936       -5.64225359252914        8.38808783432552
C            3.80568520514006       -4.87142636210745        7.41240837640225
N            5.48982252229501       -5.19796234840938        4.15251759710657
N            5.98402124778486       -4.21634820244393        3.35907618704939
C            6.62704217224135       -4.48243273920692        2.12344592385258
C            6.74246771992390       -5.79942491776023        1.69335206675765
C            7.35401303788565       -6.09431414430141        0.49509014541006
C            7.85887896333967       -5.07918641853906       -0.28582829525791
S            8.65762799488720       -5.46434131050507       -1.84360685219784
N           10.21610804090442       -5.82808375896984       -1.27439874617174
O            8.02933511716687       -6.69719796811664       -2.41696306986767
O            8.70614468306130       -4.22528346962793       -2.68371837823538
C            7.75265482022765       -3.76912781603685        0.12430545313645
C            7.14077237853678       -3.46701408391109        1.32067626783328
C            3.78969634580157       -2.67070526826941        2.32682823887668
C            2.94866135477861       -1.96383333777201        1.50026512274252
H            0.73506330408112        0.24948607329500       -0.78270808055989
H            0.60313786760299       -0.89174116967485        0.57217428785198
H            1.68287514927881       -1.25216691006231       -0.81687495498918
H            4.34487521176168        1.07856486155295        1.81219964705470
H            5.84300518265708       -0.19522600216244        3.29585297963937
H            6.71135980104154       -2.34649986956826        4.00564904564105
H            4.10552096942137       -2.70824902204335        5.31498238372745
H            5.69974015201413       -2.83440727488378        6.08045328118519
H            4.73108496998959       -7.31014262129008        5.28021896152908
H            3.69659325021379       -8.69292467835363        7.02574573913512
H            2.61123701430977       -8.73099572205263        9.05449650791548
H            2.79928710183155       -5.18913614897043        9.26510609175028
H            3.83635076051647       -3.80158035950096        7.52135193314445
H            6.34149041369296       -6.58085415919480        2.31396615910650
H            7.43767966540244       -7.11382213362747        0.15680933179956
H           10.43843806248451       -6.75779413651572       -1.53909240928455
H           10.86631826193826       -5.20849200745487       -1.69672731364555
H            8.14671022570266       -2.98743072615032       -0.50388175097160
H            7.04649974253256       -2.44334541489298        1.63478980551033
H            3.64276846031522       -3.72589319914778        2.47831964594914
H            2.14066561863620       -2.47328032161359        1.00812199852955
