59
 energy: -11.742135184710 gnorm: 0.000439890533 xtb: 6.5.0 (97a52f5)
C            0.72147298428608       -0.44402283718094        0.12684492852062
O            2.10138390192437       -0.30491489555104        0.38089488512234
C            2.83254661248341       -1.50352991734397        0.32774171827866
C            4.21485100003030       -1.42850156435987        0.51880560252209
C            5.00083881023832       -2.55373130024564        0.47897573433254
C            4.43790285299884       -3.80530839409631        0.24949902291670
N            5.25988257508406       -4.98457427907158        0.17921817495484
C            6.31083473024285       -5.19570492806901        1.11819518282583
C            7.42409061622875       -5.96938151281348        0.78695762489038
C            8.44050575511177       -6.16413875527228        1.68700729551791
C            8.40125392037023       -5.58623481684407        2.96213709368968
C            9.49838398920791       -5.83516943207322        3.89137492297461
C            9.98668716712738       -5.00700609447375        4.84824321412224
C            9.46089984121254       -3.62479562688170        5.03206069961753
C           11.08702501603444       -5.45335042769437        5.72087838273282
C           11.20966657058081       -4.96205403369777        7.02472698153920
C           12.23730809083717       -5.37194806337121        7.84471056859430
C           13.17133644227642       -6.27934635270907        7.38602551900324
C           13.07435216306680       -6.77471790458961        6.10103081940252
C           12.04793036868168       -6.36877397318910        5.27753565211112
C            7.27025209472622       -4.83238690418916        3.29888307366425
C            6.25531335014337       -4.63735212039745        2.39631709938449
C            5.00903105153072       -5.93546130161898       -0.87171356444138
C            5.00970353351211       -7.30295353627678       -0.61517898686949
C            4.75679388406498       -8.20471380309744       -1.61941021190005
C            4.48734241625218       -7.78011830517302       -2.92328454501069
O            4.23893466349844       -8.76715783356896       -3.89177212604172
C            3.95916669189503       -8.27116109705438       -5.18155623200650
C            4.48232385724104       -6.40504087969978       -3.17284101226384
C            4.73704849355344       -5.50466372468096       -2.16668566070866
C            3.06215322781988       -3.88812153703441        0.05706259724375
C            2.27385583125774       -2.76342269683474        0.09562258839377
H            0.25726518028829        0.54246634864109        0.16036276556490
H            0.26255273627607       -1.07423020878452        0.88978661649603
H            0.56516127081791       -0.87208347350264       -0.86422621804869
H            4.65298887987214       -0.46214833632916        0.69522939244076
H            6.06581671449408       -2.48001718322979        0.61370424409850
H            7.48268365429993       -6.40066908069894       -0.19675883081678
H            9.29448391764043       -6.75975463639932        1.41303979105692
H            9.97257519928387       -6.79548625750494        3.78770435575602
H            9.11210313092775       -3.20444884689046        4.08833566282789
H           10.24029365600344       -2.95981249961308        5.40630474136168
H            8.63785499723150       -3.60770700864536        5.74718602086944
H           10.47771015186933       -4.26524492689873        7.39448095955200
H           12.31227681271717       -4.98500803912358        8.84780689820468
H           13.97577377206595       -6.59830455832565        8.02852140530843
H           13.80743250704433       -7.47741044292190        5.73974986216236
H           12.00181529227358       -6.73791071653260        4.26812840074243
H            7.17734509102870       -4.43554484592588        4.29372990607733
H            5.38791480846914       -4.06448481804776        2.67344496092411
H            5.20248399274621       -7.64330833747193        0.38715772084765
H            4.75950587847087       -9.26131847800833       -1.41824938047181
H            3.77767080204829       -9.11430161280027       -5.84945658917720
H            4.81147920507745       -7.70288160551151       -5.55658150345218
H            3.06640636707510       -7.64479315513519       -5.15563291014095
H            4.27564377514722       -6.04338858253651       -4.16351857834433
H            4.73152500975086       -4.44771200877020       -2.36817626300058
H            2.62387193462950       -4.85417113303494       -0.12349418691725
H            1.21413275891843       -2.85726670682112       -0.05699628703978
