86
 energy: -18.010608892980 gnorm: 0.000542520463 xtb: 6.5.0 (97a52f5)
C            1.00804990185514       -0.05740646208617        0.13751107931815
O            2.41456464325854       -0.12837276880441        0.05907898977963
C            3.09003900137219        0.95324871946747        0.64245088674581
C            4.48808242919915        0.94704232851466        0.59785564691129
C            5.22223963252897        1.96808414293658        1.14760967625112
C            4.59239775352698        3.04388618990334        1.76733982686500
N            5.36138654622127        4.11470600143952        2.34668688482568
C            6.50422332611943        4.62201836650571        1.65416447867414
C            7.61778907882772        5.08741958655156        2.35680202286060
C            8.70986708706020        5.58884788063543        1.69719496625106
C            8.74046042086807        5.66064544215461        0.29810470610132
C            9.91777214488922        6.19133439046363       -0.35966736616010
C           10.01291284158345        6.70327600669305       -1.62285497070248
C            8.81673357766595        6.95805547322301       -2.46122768570030
C            8.71059661974528        6.40403923518770       -3.73752296351851
C            7.60371973726494        6.64708064936810       -4.52000502971903
C            6.58437133749544        7.45109781837583       -4.04858621233276
C            6.67628399078365        8.01648347889381       -2.79193170658835
C            7.78154504344640        7.77697118633961       -2.00619146248534
C           11.33339293059204        7.09349587682743       -2.15808712453051
C           11.44098480205652        8.12886072485552       -3.08802665152761
C           12.66561557393215        8.50215775610234       -3.59568952985749
C           13.81169162448711        7.84822849504369       -3.18956041910741
C           13.72754845898799        6.81671860302645       -2.27565680614075
C           12.50408953029994        6.44126395635131       -1.76533193716347
C            7.63174563711518        5.16577092633455       -0.40164305248110
C            6.54195486863322        4.66070274602728        0.25928637003497
C            4.97975357001014        4.65750808731132        3.61268563103452
C            5.17922491487186        6.00944648571693        3.90045069568777
C            4.82978863989998        6.53103789743101        5.11906782532495
C            4.27117832959590        5.72354263302068        6.11879579228905
C            3.91092079237611        6.31629302477590        7.39127572049374
C            3.73363751692591        5.68480121674295        8.58981458757601
C            4.07888144531197        4.25624670169574        8.78668991640096
C            3.12935841062405        3.35412736518072        9.26819241598714
C            3.45116370697271        2.02861564136721        9.45803662284077
C            4.72615770620299        1.57768642884418        9.17731854860336
C            5.68224444130586        2.45787731288102        8.70983098351807
C            5.36540494573565        3.78441302989202        8.51943485409195
C            3.25645611432751        6.45240660928774        9.75849734854877
C            3.64733923902793        6.09098089718321       11.04884408426562
C            3.20900020394372        6.79765356006826       12.14666316118226
C            2.36703005779731        7.87946694160823       11.98246224027377
C            1.96288614050962        8.25040224435360       10.71534358803921
C            2.40019741807300        7.54616936432217        9.61488319422056
C            4.04688340505764        4.37441230951916        5.81329645779088
C            4.39331766030615        3.85491144662515        4.59279106326122
C            3.20077931735825        3.05809084517503        1.81470957386416
C            2.46347084425039        2.03743106628700        1.26617629815123
H            0.58400836787434       -0.94135827788514       -0.34080685756617
H            0.64827353207294        0.83042359053091       -0.38424997886234
H            0.69161990341193       -0.03800758112194        1.18129199951988
H            4.97878204950567        0.11704949860119        0.12105649547370
H            6.29742971712527        1.94682609270174        1.11192129157615
H            7.61111154507053        5.03521177267786        3.43146940201985
H            9.55846320882807        5.94519991375413        2.25583836799577
H           10.81522606723498        6.19310862921615        0.23414532224847
H            9.50816609803857        5.77931123169447       -4.10133175644532
H            7.53308151463064        6.20955384715574       -5.50244458423367
H            5.71832171485135        7.63897367316820       -4.66206329610964
H            5.88206648734330        8.64622210630485       -2.42547003226398
H            7.85852809321500        8.21711192568495       -1.02682653728546
H           10.54831352270374        8.64111840392149       -3.40276296129089
H           12.72926195559771        9.30564005945555       -4.31121712880274
H           14.76991425249869        8.14058162354407       -3.58724866354249
H           14.62144691865582        6.30168870320222       -1.96339837340541
H           12.44427101817915        5.62080369537402       -1.07175023653298
H            7.64344665824578        5.17428185484276       -1.47637782474535
H            5.69253739675977        4.29776474405269       -0.29240833443576
H            5.60326316122668        6.64356217478876        3.14169846401045
H            4.99348732272756        7.57530270345168        5.32373947420439
H            3.78837214381099        7.38539814866544        7.38307596880443
H            2.13732360442686        3.71032908560570        9.48674372968538
H            2.70667458652278        1.34200550590214        9.82673642949660
H            4.97557414265917        0.53961575046502        9.32525985389431
H            6.67774489372446        2.10618707831071        8.49315906662222
H            6.10785621803916        4.47448994159064        8.15700868551389
H            4.30668235006184        5.25004152427953       11.17713096596085
H            3.52375560655491        6.50569926279494       13.13527613044670
H            2.02397814893317        8.43186450715593       12.84211382022312
H            1.30067062313006        9.09119639402406       10.58734251090686
H            2.06215633634794        7.82642787219462        8.63250381308234
H            3.58499333817179        3.74033399810104        6.54798802512939
H            4.22841720146374        2.81329624476272        4.37964198418488
H            2.70897110736380        3.89038555877541        2.28735877820060
H            1.39065583269156        2.07522088263513        1.31847276627012
