66
 energy: -13.477581687050 gnorm: 0.000707981135 xtb: 6.5.0 (97a52f5)
C            0.93296659359696        0.10503708576795       -0.31698248038175
O            2.33351343828923        0.17032806964800       -0.16950265639450
C            2.99304264677470       -1.06626766642327       -0.26039034150910
C            4.38362965595444       -1.07121716183680       -0.11928813855009
C            5.10310382716009       -2.23770184578602       -0.19781868210662
C            4.46334376867119       -3.45423297673657       -0.41708325343252
N            5.21410944460508       -4.67702081214236       -0.51959744538291
C            6.30190146939529       -4.94083485508881        0.36083635786122
C            7.36087335767664       -5.76289309794276       -0.03237060062241
C            8.40425957875870       -6.02560457464942        0.81653329920113
C            8.43563850088125       -5.49218345952540        2.11325217307384
C            9.55809484586210       -5.78328455483863        2.97837712041410
C            9.60280170551022       -5.70852776800241        4.34536006573896
C            8.38209307844070       -5.51012275387947        5.16137133638471
C            8.31728295849991       -4.48906182216959        6.11142920877352
C            7.18394103481311       -4.30587155094954        6.87146732848062
C            6.09534127927044       -5.13961418173312        6.70529532795768
C            6.14418364688083       -6.16214626048676        5.77813491654167
C            7.27513633067696       -6.34952235524515        5.01591220648563
C           10.88573136671818       -5.90705635514600        5.04723884866179
C           10.91288352765526       -6.45241748160036        6.33264182486183
C           12.10330890712234       -6.63979777744733        6.99862374584221
C           13.29530253655299       -6.28400462912997        6.39949129132081
C           13.29147808237288       -5.73764797600875        5.13128400230851
C           12.10275523650223       -5.54979856113073        4.46145955068487
C            7.38008620936176       -4.65096999684361        2.49403285517280
C            6.34077109997203       -4.38535878808848        1.64185272641157
C            4.84583654388131       -5.63084234038714       -1.53205822084449
C            4.80611135408852       -6.99312902466468       -1.24999983084858
C            4.44479534018960       -7.89888464926518       -2.21613847435150
C            4.10444974668074       -7.48485883077930       -3.50699023054167
O            3.74917209250269       -8.47559500469383       -4.43673727783616
C            3.44800183818207       -7.99369406190810       -5.72723117932540
C            4.14101311642411       -6.11474885417731       -3.78235029325316
C            4.50302941844292       -5.21024912335930       -2.81387320668965
C            3.07865707214046       -3.45692222574018       -0.56078123300287
C            2.35660226681170       -2.29078378992535       -0.48396838873148
H            0.52517451425653        1.11317828314550       -0.23360510213272
H            0.50315803895312       -0.51432082967344        0.47122171397436
H            0.67838245687166       -0.29653226840375       -1.29860103838429
H            4.88139850912632       -0.13300930832199        0.05109582598968
H            6.17463059777288       -2.22436679824199       -0.10035814094794
H            7.35354183906089       -6.17829307094346       -1.02470153535285
H            9.21212252850583       -6.66066908027481        0.49548761698237
H           10.45488802188042       -6.10745789716016        2.47946657090548
H            9.16738370021247       -3.84078679946651        6.23696149657125
H            7.14630741346319       -3.51090306793843        7.59817304212460
H            5.20865789629665       -4.99358563207685        7.30031021632640
H            5.29501348807796       -6.81317814520354        5.64956786105801
H            7.31740621780605       -7.14562975598986        4.29265051203580
H            9.98469140374877       -6.73399184131525        6.79890489373621
H           12.10523140498751       -7.06541847867488        7.98878976422926
H           14.22678043176161       -6.43002980597408        6.92163353537804
H           14.22144201490315       -5.45395871108718        4.66613862678295
H           12.10609299381164       -5.10068762699535        3.48365815422707
H            7.39648767299014       -4.19794060549842        3.46867004584613
H            5.52912381917979       -3.75445410624659        1.95875888975033
H            5.05539185945708       -7.32500888164296       -0.25729048178287
H            4.41637043749901       -8.95114681382106       -1.99526612858032
H            3.20270988895469       -8.84069538150177       -6.36930936724242
H            4.31303872603869       -7.47599732801211       -6.14403895921215
H            2.58760131512244       -7.32444951800859       -5.68546427967921
H            3.88223240067910       -5.76112288724548       -4.76363536865802
H            4.53098457577826       -4.15771391196061       -3.03566999144376
H            2.57944986964510       -4.39486143241064       -0.73077869737417
H            1.28830304584070       -2.32365628673814       -0.59688192749942
