96
 energy: -18.995881865035 gnorm: 0.000171539840 xtb: 6.5.0 (97a52f5)
C            2.93869038944401        3.77044954162986       -1.31710869995497
O            2.98352495674762        2.36457755533521       -1.20396534614864
C            3.55801615362198        1.71250229382925       -2.28800566674790
C            3.60071921484516        0.30843676996140       -2.25796091953289
C            4.13731046109015       -0.40822038572005       -3.29155878686881
C            4.66367045730640        0.23409326753320       -4.41836589687262
N            5.19215335462145       -0.52146753871052       -5.50807543292624
C            5.86457834476227       -1.75572820656109       -5.25822281199377
C            6.64258237044317       -1.92618887387643       -4.10720292588337
C            7.31184929875809       -3.09593998569576       -3.87565718389644
C            7.24355727570672       -4.16770333992985       -4.78166663293364
O            7.96302067281446       -5.31690277618374       -4.47814233960875
C            7.87748125493910       -6.33959753499221       -5.44668522550674
C            6.45270763625388       -3.99709413616096       -5.93087000081912
C            5.78360139722132       -2.82508237128057       -6.15817377648954
C            5.04643303628331       -0.04268805044492       -6.85228921112376
C            5.99635267890751       -0.35548475921134       -7.82440346903868
C            5.87162931264044        0.08314339041195       -9.13678302910755
C            6.82348018683443       -0.25955092134416      -10.15265163748364
C            6.67763033313533        0.17434476572812      -11.42281110500522
C            5.57316334022966        1.00595500290864      -11.80154885077953
C            5.40301757064856        1.47262187417318      -13.09914043908527
C            4.34253836303756        2.30533183588265      -13.41824315315532
B            4.18866000241132        2.82574662014028      -14.87421811523497
C            3.95528295246058        4.35159365505439      -15.12256464727432
C            2.89734919723093        4.77646577631408      -15.92947044229138
C            1.96385894325624        3.79656096002545      -16.54731633002999
C            2.73507654969810        6.13089069958416      -16.15988075426453
C            3.58216068554949        7.07105803666546      -15.59174696476927
C            3.40422199873837        8.52324435466414      -15.87036569512528
C            4.62386426716300        6.62668296636235      -14.79112416713790
C            4.82922602523849        5.28064831113564      -14.55036036027086
C            5.95323408948849        4.85321909860097      -13.67307211209620
C            4.27307594114107        1.81140453140997      -16.06082479922528
C            5.14056087478880        2.05179455015747      -17.12863071931680
C            6.01052232024196        3.25832216387549      -17.15175142990141
C            5.16874084046546        1.15452178550933      -18.18119180558432
C            4.37513337726837        0.01685374092521      -18.18740918926139
C            4.40468281663509       -0.92364270478029      -19.34181203035103
C            3.52416593330040       -0.20382119416041      -17.11452512775466
C            3.45503909766602        0.67789993104370      -16.05164037340402
C            2.53616177146800        0.39210806838284      -14.91599453996255
C            3.41870592973991        2.67830980865704      -12.45531643665588
C            3.52629561170692        2.21232811291489      -11.15076318920370
C            2.57109483102511        2.54474847366177      -10.13488935719702
C            2.69622458009605        2.07374679772162       -8.87576923566136
C            3.79720178598247        1.23469848294786       -8.50255548361146
C            3.95267246865405        0.74446265368800       -7.21186906017507
C            4.76309336421133        0.89622303053218       -9.48380249242801
C            4.62046189314848        1.37206472391665      -10.81425334652905
C            4.63626185968793        1.63354546096949       -4.44674201586244
C            4.09875612193143        2.35460455975800       -3.41516294526874
H            2.45322731521011        4.17888097929617       -0.42967552423300
H            2.35979125155334        4.05711359824480       -2.19628733577286
H            3.95022001801611        4.17393986742652       -1.38041788312992
H            3.19096480638542       -0.19367675329206       -1.39948042475889
H            4.14007291939963       -1.48369584653743       -3.26044264028735
H            6.72506675079080       -1.10868072212564       -3.41261191789689
H            7.91362071779444       -3.21558717276322       -2.99217128203855
H            8.48938708004764       -7.18248859858980       -5.12246850221585
H            8.25557284765037       -5.98051778455119       -6.40498120359639
H            6.84428747389396       -6.67478439012525       -5.54761604467608
H            6.36967155915855       -4.79789996338964       -6.64280198189643
H            5.16938410051844       -2.71585009453757       -7.03490902615298
H            6.85011275989049       -0.94658114091572       -7.54975217592138
H            7.66079943242426       -0.87983440341392       -9.88362889426136
H            7.39865708764477       -0.09511004952237      -12.17500828507028
H            6.10470923583025        1.19721321645146      -13.86518015948347
H            1.61873958653019        3.07195597156422      -15.81034475130044
H            2.45106769906304        3.25227975317187      -17.35689555753959
H            1.08350406039442        4.29068649996433      -16.96002291270307
H            1.93250579825631        6.46522706069085      -16.79306232119107
H            2.35391369077702        8.76680092032465      -16.03542652054481
H            3.96221786086126        8.81754785175415      -16.76018085775928
H            3.75731660137265        9.13045128539204      -15.03581923679707
H            5.29126130532606        7.34675591223392      -14.35169499467304
H            6.78973196178239        5.55033551438494      -13.73574617204025
H            6.32501457848043        3.86924862901894      -13.95705782568680
H            5.63348077067868        4.80335345167193      -12.63157580761448
H            6.51177717869517        3.39357853422998      -16.19378308726471
H            5.42591121323445        4.15514730735404      -17.35903942976752
H            6.78210783466480        3.17815581858516      -17.91838387981762
H            5.82183327157817        1.34076691140651      -19.01526299847741
H            5.40474780753183       -0.98535919471600      -19.77283674388446
H            3.71973134039147       -0.59630752240188      -20.12505327756169
H            4.11261221205087       -1.92988782545057      -19.03851825197119
H            2.89906393856345       -1.07917560245810      -17.11224790688970
H            1.65764466023242       -0.16201399743859      -15.24889076342028
H            2.18571231444473        1.31220968495645      -14.44941758514640
H            3.03916303947892       -0.20102618102793      -14.15138614621514
H            2.60626694954545        3.32649446203618      -12.72875757279509
H            1.74135366178111        3.17765701264538      -10.39801395796642
H            1.96815269242394        2.32941153806182       -8.12558343236049
H            3.20794180618068        0.97369650511524       -6.47255648588201
H            5.06079645380735        2.14072697552756       -5.29551669594643
H            4.09217016505431        3.42792110897072       -3.46968583835309
