67
 energy: -13.891672504803 gnorm: 0.000354473097 xtb: 6.5.0 (97a52f5)
C            1.11005794804585       -0.16346713613380        0.01178271998572
O            2.51432377674806       -0.05078334410759       -0.02665942651612
C            3.17907840867798       -1.15681017605382       -0.57824041843485
C            4.57154664660492       -1.09226476142326       -0.67735853406317
C            5.29557872217026       -2.13018387907568       -1.20906996181354
C            4.65812407187134       -3.27849225476909       -1.66821386022908
N            5.41981048791121       -4.36897440646118       -2.21644781119581
C            6.60745319066623       -4.79253952156288       -1.52416712670787
C            7.77843961882208       -5.08225106583007       -2.21780492770925
C            8.90753579740174       -5.48304757500824       -1.54777028041151
C            8.91753251768170       -5.60983479252177       -0.15602979728037
O           10.11211170642980       -6.02802389289122        0.45027009747708
C           10.05121316182559       -6.15466142139754        1.85265718268502
C            7.74005984371488       -5.31083483774768        0.53493626985715
C            6.61175319158497       -4.90961566526152       -0.13741262067374
C            4.97406295848708       -5.04910568854756       -3.38685806230328
C            5.34041995606176       -6.37307145977953       -3.63257080490850
C            4.88545746727079       -7.03947684723630       -4.74285384136220
C            4.03783983739678       -6.41053642989284       -5.66078857554304
C            3.51695885093810       -7.10161648693807       -6.82719810221464
C            3.85008228066882       -8.35810514547355       -7.26244377371961
C            3.15697791855879       -8.76707203091768       -8.42062585332573
C            2.27108261233206       -7.84238541372057       -8.90803196000461
C            1.41584741300281       -7.99748604181787      -10.05698294900846
C            0.54128356915745       -6.99254440957267      -10.42608259349141
C           -0.32488921404323       -7.10834279701271      -11.51431686110394
C           -0.37697344906532       -8.23609256513387      -12.30997046690490
C           -1.30530458024047       -8.31710723337629      -13.41466925174669
C           -1.45030265713661       -9.36872842041157      -14.27528211181857
C           -2.44793370355940       -9.17507584087200      -15.26585607228884
C           -3.07067149479558       -7.97874578267252      -15.17255869173722
S           -2.43622479498612       -7.05731913180305      -13.85515976563222
C            0.51750911695849       -9.32288877605840      -11.98933089670114
N            0.63142278298421      -10.47424845330591      -12.61525665067792
S            1.78776617819858      -11.35859994385881      -11.85066739255568
N            2.17388111471228      -10.26857150603986      -10.68155190523335
C            1.42273738813829       -9.20292243697892      -10.85288923759736
S            2.32472870031776       -6.41635724891847       -7.90310961274959
C            3.68010557513791       -5.08215495301478       -5.41510601140515
C            4.13912244389045       -4.41576292063253       -4.30777554477612
C            3.27211981297375       -3.35403828418707       -1.56409853437838
C            2.54560414948797       -2.31651833450616       -1.03319108465186
H            0.69901378599567        0.75251695871331        0.43824505879380
H            0.82105205380858       -1.00620794215420        0.64127998296507
H            0.71859210750462       -0.28881456371088       -0.99875391795160
H            5.06599317616448       -0.20410168938802       -0.32596926341540
H            6.36707449280830       -2.06749380432055       -1.28288028681845
H            7.78720817898898       -4.97897918706986       -3.28873495597889
H            9.81156510882829       -5.70772959637229       -2.08538581357125
H           11.02225907255194       -6.49611082330979        2.21370094188458
H            9.29433703646015       -6.89045472923571        2.12797258273875
H            9.82693318654139       -5.18747050544306        2.30462993580530
H            7.71331362128356       -5.39507561170458        1.60587336302680
H            5.70772211113832       -4.68614460475615        0.40155199639699
H            5.97261020366455       -6.87678565858040       -2.92303746446109
H            5.17198760596259       -8.06344365645242       -4.90372014394075
H            4.57747645952876       -8.98257033885809       -6.76868514940328
H            3.29672100847371       -9.72814161447446       -8.88568347177038
H            0.52872530230201       -6.09096320647198       -9.83962922717869
H           -0.98767863575477       -6.29352639090768      -11.74605750727283
H           -0.85394847419393      -10.26219410316736      -14.20021062910794
H           -2.68460898563091       -9.91392237956239      -16.01773226716221
H           -3.85372588449117       -7.63133769827779      -15.81971748854788
H            3.03017906964575       -4.58448148223886       -6.11313206439505
H            3.86315729211346       -3.38971554637619       -4.14047792958461
H            2.77664773372928       -4.24812232847784       -1.90017147601247
H            1.47658404954214       -2.40243018447144       -0.96596970218661
