55
 energy: -11.719415656964 gnorm: 0.000562288803 xtb: 6.5.0 (97a52f5)
C            1.83979010160893        0.55229248258846       -0.35190923441742
O            3.23374854552396        0.39644891302060       -0.22890625300390
C            3.67035174821212       -0.92653648057093       -0.06224211292942
C            5.04394546756029       -1.13693227163562        0.07750572317758
C            5.55634558311285       -2.39948279078487        0.24532365768255
C            4.71547825427504       -3.50646201180207        0.27724873894115
N            5.25034121987056       -4.82875252797076        0.45779563375574
C            6.28093100959698       -5.03598278725768        1.43843271054207
C            7.38632349080629       -5.83009996124116        1.15278724468628
C            8.37385684292417       -6.01678937463710        2.08788609578602
C            8.29986658260686       -5.41732739241281        3.34706177322419
O            9.35304124115066       -5.66298390237246        4.24112740659640
C            9.20697080291922       -5.07096066326028        5.51026677220912
C            7.18916089493971       -4.61761044672619        3.62630949381212
C            6.20220595668568       -4.43176978534184        2.68878059728145
C            4.76963336360593       -5.91747545867219       -0.33013064759624
C            4.76761341451537       -7.21772424204433        0.17334892599969
C            4.30326235706839       -8.26253064515227       -0.58595414159390
C            3.82759950580725       -8.05194831114793       -1.87728931201742
C            3.34182912083635       -9.19251491088251       -2.65041328659917
C            2.91092440519775       -9.18261504392214       -3.97360280675013
C            2.54303308069364      -10.47178481000854       -4.28964385623487
C            2.75132706040626      -11.25634068516783       -3.15841507868810
C            2.50083772872757      -12.66884229594341       -3.01138097349556
C            2.02599018712673      -13.50871129677846       -3.95951400477035
C            1.70981613136102      -13.10608398075492       -5.25775721117655
N            1.45144547082028      -12.75427811363436       -6.33522234143296
C            1.83626662476768      -14.85342041360953       -3.63671002885815
N            1.67867490930533      -15.97093420112781       -3.35712030795827
O            3.24652206986285      -10.46586243567686       -2.14835224731796
C            3.82872513847817       -6.75211537959637       -2.38303740314360
C            4.28947837369256       -5.70639382104871       -1.62231315711929
C            3.34573655239745       -3.30488523148935        0.14216714891927
C            2.83085406859372       -2.04230045094024       -0.02534111905124
H            1.62293587116885        1.61469927050941       -0.47247985531001
H            1.34567624293915        0.18891342312886        0.55039956216159
H            1.48321585198709        0.01510138906292       -1.23201829623340
H            5.69430293621271       -0.28063444706576        0.05034574049180
H            6.61688392847426       -2.54965695337608        0.34740955676014
H            7.46062020250580       -6.28790281891806        0.18188243715798
H            9.22918051211756       -6.63036978595925        1.86668438447823
H           10.06678003334925       -5.35165177316505        6.12037384833663
H            8.29747499439726       -5.43838306784500        5.98797561358738
H            9.18104092413935       -3.98476671739072        5.41118489554972
H            7.10261743951489       -4.13913949391483        4.58454473242846
H            5.34733438504833       -3.81777111029964        2.91269402630335
H            5.12093429885304       -7.38902251798268        1.17480698599257
H            4.29789884435543       -9.26508076310630       -0.19320666224658
H            2.87152706818394       -8.33089018389180       -4.63054262343672
H            2.15985378710988      -10.80937154575053       -5.23551875939119
H            2.71536062985795      -13.08055414735247       -2.04108406821664
H            3.46209237968419       -6.57008902648206       -3.37769244060444
H            4.29853321473259       -4.70790928662174       -2.02255581475469
H            2.69161174443112       -4.15851173477364        0.18049106512038
H            1.76864740587903       -1.91580798080943       -0.12733072663504
