55
 energy: -11.845053206940 gnorm: 0.000669245247 xtb: 6.5.0 (97a52f5)
C            1.77397654509279        0.51570886247015       -0.11731562369264
O            3.15482732289486        0.26445604095505       -0.00786032181795
C            3.61804730249867       -0.83821176824191       -0.74150695687867
C            4.98211722025300       -1.12936765324823       -0.67035838135957
C            5.51995902577290       -2.18879722882925       -1.35830131458772
C            4.71484168956310       -3.00187191676364       -2.14852031920867
N            5.27457213448688       -4.11733991299668       -2.86251157133735
C            6.22674299889940       -4.96381499324839       -2.19654478904747
C            7.36438808779045       -5.41507501157205       -2.85712070534831
C            8.27402220219501       -6.21789081389236       -2.21463104874708
C            8.08780724472754       -6.60144489432871       -0.88476135410511
O            9.06795691280429       -7.42274974241663       -0.30757735582117
C            8.83677368913479       -7.77280532853619        1.03634162441947
C            6.94522771348514       -6.14203030418230       -0.22562328534409
C            6.03598630122981       -5.33924907482275       -0.87082852134753
C            4.88259594883576       -4.38347202281042       -4.20908537409538
C            4.86537968818138       -5.68769927783236       -4.70345861344016
C            4.47793511684128       -5.94049219132979       -5.99586706231331
C            4.09654045333252       -4.90302729578571       -6.84177368807685
C            3.69722568225856       -5.22633950012861       -8.18558859576539
C            3.26793344720516       -4.46218536768888       -9.25423882697035
C            2.96754351637167       -5.19899525383543      -10.42564857363721
C            3.14765939351520       -6.56834796660288      -10.32586738408100
C            2.96129008725525       -7.63307008672903      -11.25115097494648
C            2.53350643973864       -7.50578727330037      -12.52936340021289
C            2.21753894250869       -6.27220520325866      -13.10032753833048
N            1.96029993704506       -5.23299951594815      -13.55348559689428
C            2.39582975076083       -8.64794210570834      -13.32040429343199
N            2.28225980087766       -9.60410468773012      -13.97172443634122
S            3.67800907949632       -6.78186739413226       -8.76391415707428
C            4.11472197977642       -3.59600783519775       -6.35224115071926
C            4.50036806046428       -3.34470208274503       -5.05874790252308
C            3.35431211877212       -2.72082542294462       -2.22090775584841
C            2.81416534794761       -1.66085842607255       -1.53390906449199
H            1.53570051346683        1.38982632268463        0.49060521450882
H            1.21117278269170       -0.34113711784731        0.25623648659432
H            1.51761646667895        0.72473034815810       -1.15708669935379
H            5.60472750133476       -0.49883307971176       -0.06051647068576
H            6.57356123281476       -2.39945174773984       -1.30029438888231
H            7.52612716683878       -5.11594088871127       -3.87799327048582
H            9.15422038588084       -6.56688489761144       -2.72511127464839
H            9.66108533617109       -8.40354539222985        1.37258805036095
H            7.90405592502164       -8.33311498240974        1.11703974785902
H            8.80376187656474       -6.87302104522988        1.65260196994621
H            6.77086470600639       -6.41896212215186        0.79790280523722
H            5.15483535074615       -4.99454511580365       -0.35822799334988
H            5.14385051528718       -6.49670799622470       -4.05155650130273
H            4.45746929405049       -6.94539464980241       -6.38386285383946
H            3.16967978050596       -3.38538906065481       -9.19815994843703
H            2.62134990147578       -4.72876696798257      -11.33617547713236
H            3.18409403714251       -8.62109249859010      -10.88565491348314
H            3.82452912702175       -2.78531078391028       -6.99729522954967
H            4.52439247173466       -2.33521181659195       -4.68760683375481
H            2.72618793288793       -3.35744662006546       -2.81947227869442
H            1.76000651366739       -1.46637723813688       -1.60907582750063
