71
 energy: -13.779355751820 gnorm: 0.000451658153 xtb: 6.5.0 (97a52f5)
C            1.08280136340872       -0.60920093879167        0.59108911484439
C            2.26885178587007       -0.38344829836630        0.68823572697707
C            3.65981054235434       -0.14657391212947        0.81585301779594
O            4.38487563464161       -1.15142191864629        1.53577124195303
C            5.73992679170545       -0.91953660727934        1.65849021191913
C            6.50282573476656       -1.87385318471201        2.35954228720216
C            7.84930186172937       -1.72283081689945        2.52814937866373
C            8.52608603976048       -0.60731652825424        2.00599343297372
C            9.94039665191068       -0.47967466908482        2.19730349954514
C           10.70299880481908        0.53762726587106        1.72742004282957
C           12.10217120172406        0.65018640580613        1.91575872475751
N           12.86840403801570        1.66651273874979        1.44073494695149
C           14.19541188397266        1.51887474748525        1.75686344925734
C           15.19877735256073        2.44360481346058        1.36864410258301
C           16.62318517192751        2.23223040531794        1.69366390260202
C           17.31433816912927        3.11094194149788        2.54785279388398
C           18.62999285317493        2.91144122710232        2.85198752134252
C           19.34583077823851        1.81886167410686        2.32210149661721
N           20.67558280157912        1.61820906233705        2.64254700962837
C           21.37388713668064        2.46833042374749        3.60845604999686
C           21.46413427173481        0.48587519764824        2.11662593785883
C           21.23027520666928       -0.78609099159840        2.90391249967933
C           18.65254915498918        0.94305939926471        1.46240576208270
C           17.33653351520642        1.14303209483792        1.16037160915919
C           14.75479019573984        3.57646548792570        0.63905851191488
C           15.47249013948547        4.64963319584063        0.03067465775288
C           16.93993485829872        4.86564892796474        0.00902953831450
C           14.54031751737854        5.48011950898376       -0.56780922733798
C           13.25424733085389        4.94149226939416       -0.37368403900400
C           11.97106007753985        5.46886223017903       -0.87404455918686
N           13.42377439445035        3.81606083299457        0.33065927181034
B           12.27487718394134        2.86893060029717        0.69692733141930
F           11.65060600234768        2.43083514021060       -0.46423580656433
F           11.38226931714772        3.53088161727191        1.53095749295666
C           14.26556681479668        0.31111155081352        2.53918432132564
C           15.46452068475159       -0.28585617452497        3.17689724026153
C           12.99741282986830       -0.21188070997186        2.61101987203401
C            7.76762975874785        0.34737511651420        1.30565652076525
C            6.41989140123233        0.19861404904168        1.13643722442441
H            0.03822017301081       -0.80536764795257        0.50716465069363
H            3.82135749974645        0.80842840107970        1.33080603590345
H            4.10878678886298       -0.06737406956162       -0.18187008219355
H            5.99343172918765       -2.73143074461894        2.76179599360863
H            8.41040080516879       -2.46652835365859        3.06753157429014
H           10.42833650466534       -1.25901221383346        2.75464108039097
H           10.24436014655362        1.32584349590871        1.16137078654251
H           16.77907230147214        3.94318780745705        2.97123253093723
H           19.13252294142705        3.60198955962814        3.50486083192763
H           21.46932103562009        3.47864994609376        3.21527377291378
H           22.37069089007547        2.08579537206500        3.81822239580859
H           20.82211145641000        2.49902768663145        4.54597262017434
H           22.52371782501337        0.76243902909577        2.13182396441687
H           21.22256145262626        0.35410714198011        1.05734656383128
H           21.50760057756590       -0.65194980270410        3.95034658703792
H           21.80781168191231       -1.62522422411025        2.51110192881332
H           20.17761823771975       -1.07077074997579        2.88891916842601
H           19.16537054925253        0.09781139656477        1.04137448049963
H           16.82388243593434        0.46981691282390        0.49521031092416
H           17.47375712212207        3.92153205767381       -0.10025172159859
H           17.27727090732432        5.34593719470858        0.92760452863347
H           17.22692725314456        5.50489303757944       -0.82644444006450
H           14.76256567361710        6.38070614421097       -1.11423816018592
H           11.82551910865601        6.50318587420472       -0.56198998030073
H           11.14183998847147        4.87681373592287       -0.48607740653529
H           11.93345413478747        5.42992468327951       -1.96277804034114
H           15.18319803784019       -0.91717749670074        4.02028856679873
H           16.01687013050060       -0.90291413362726        2.46807434134662
H           16.13455572883858        0.48695614009522        3.55382314405504
H           12.72569928212852       -1.11522142034495        3.12834177593544
H            8.25557868947023        1.21285050292245        0.89514721657019
H            5.87299165789649        0.94885156268163        0.59550286874904
