64
 energy: -13.457374385244 gnorm: 0.000238335590 xtb: 6.5.0 (97a52f5)
C            0.67915877819051       -0.13470368967419        0.20577202031128
O            2.04373098057748        0.00648082462786       -0.11449663423320
C            2.83635916624161        0.54680130880949        0.90655162230937
C            4.19756104728332        0.72306065060911        0.64156513121488
C            5.04263959472397        1.25124132788061        1.58424988713794
C            4.56539523984451        1.62550363849074        2.83715556498859
N            5.44451607615501        2.20085599803366        3.81606289739275
C            6.47359929892671        3.10864111780072        3.39031614645773
C            7.74774812767961        3.05095069042139        3.94832151785478
C            8.73164450390432        3.91472904822866        3.53955227377951
C            8.48787274598520        4.87544673140294        2.55389251901455
O            9.54842913093596        5.71875025283518        2.19809607673679
C            9.24306731401869        6.66739208293118        1.20258297868356
C            7.20735176367517        4.92644890165537        1.99450864550006
C            6.22443335581765        4.06036133593147        2.40514153038741
C            5.31798175082797        1.86352418992858        5.19749456883332
C            5.62895679903339        2.79478825938422        6.18834958044607
C            5.54072651840712        2.46569086613017        7.51701420260208
C            5.14565877623921        1.18677199780072        7.91487680932425
C            5.09332215180564        0.82272528735953        9.34461615537169
C            4.61174228749199        1.72036201672433       10.30314955567149
C            4.59429664944640        1.38461437223791       11.63335889319856
C            5.06080746102031        0.14921279725179       12.06610368749828
C            5.54653314052313       -0.76544539566568       11.11811345839270
C            5.54924479986663       -0.41696164063075        9.77874359060423
C            6.06589394039308       -2.07894493987152       11.52925459192241
O            6.46411182194372       -2.88044453621870       10.70211091956989
C            6.09303598093527       -2.39244333069792       12.96633329648566
C            6.61153294060438       -3.60507356959048       13.40021385699304
C            6.64628959449547       -3.91868843432971       14.73870818196066
C            6.15932315653210       -3.02113514423435       15.67134836784393
C            5.64201439701403       -1.81527010036030       15.25961652705922
C            5.60083220939139       -1.48049198812340       13.91278685736257
C            5.05206515620233       -0.17949846208604       13.49731916469407
O            4.60869403501707        0.60509687668748       14.31911770356818
C            4.82824762606642        0.25734828972600        6.92167732492777
C            4.90677023373164        0.59036455076997        5.59261638151318
C            3.21124326688721        1.44979486602540        3.10940944296651
C            2.36303197628577        0.92261204507831        2.16739702860547
H            0.16313872644094       -0.55653193665926       -0.65784253762074
H            0.24813242220871        0.84128124693018        0.43342369478260
H            0.56444059837338       -0.81291785795874        1.05250073231194
H            4.56844135338165        0.43462987188902       -0.32592194394742
H            6.08886420565610        1.37828295576917        1.36813952560433
H            7.95204515048826        2.30936124548777        4.70056397624075
H            9.71543116444809        3.86796091238228        3.97169646281594
H           10.13518248078677        7.26459157180431        1.00887759509530
H            8.44495141820038        7.32548194212790        1.54904173735936
H            8.95063455425206        6.15930653864994        0.28256526238052
H            6.98597606482716        5.65218074866059        1.23364769515710
H            5.23991627864450        4.11154336960095        1.97422328055298
H            5.93557555746087        3.78287546982279        5.89328280704664
H            5.80124590194510        3.19029919161045        8.26879672481987
H            4.24142489841494        2.67895312675602        9.98408528896039
H            4.22170665119549        2.07789728593875       12.36776884956641
H            5.94058513083027       -1.12051617319434        9.06649512506457
H            6.98783144484966       -4.29593391661479       12.66533124413663
H            7.05323855731179       -4.86297700500922       15.06098529660716
H            6.18611871272366       -3.26662126803832       16.72022801335497
H            5.26149701767521       -1.10843444360323       15.97694193876777
H            4.50996084301530       -0.72909923712537        7.21114538586449
H            4.67399126575411       -0.13776230167433        4.83568158855548
H            2.83511757366059        1.74872714734398        4.07210085583352
H            1.32187823336649        0.80205242182860        2.40430907569442
