63
 energy: -13.261277343920 gnorm: 0.000719708454 xtb: 6.5.0 (97a52f5)
C            1.62178128526227       -0.22854469898196        0.25133750110218
O            3.02164347020309       -0.15235832315491        0.11097210607186
C            3.52161083922537        1.13763549345048       -0.13081602381755
C            4.89907681734811        1.27027763509872       -0.32031829423787
C            5.46874247977072        2.49559566417820       -0.56412839519735
C            4.68463322878895        3.64237266113945       -0.62727431599358
N            5.27847270494084        4.92267304322958       -0.90318492152314
C            6.31241147304016        5.01029073861732       -1.89923514556327
C            7.45905340658131        5.76335889609354       -1.67039578324538
C            8.45190862332758        5.83186895949949       -2.61638479057834
C            8.34270659748419        5.14972965688447       -3.83027245871024
O            9.40539409088275        5.27189990171198       -4.74037314825572
C            9.25056314775358        4.53888140684442       -5.93347303125371
C            7.18854110671519        4.39474546963578       -4.05365552897847
C            6.19639035036013        4.32725618474589       -3.10536807982990
C            4.86036654029401        6.08815083923745       -0.19202398682200
C            4.90629532761575        7.34555651266109       -0.79257220993725
C            4.50995727939338        8.46798496854925       -0.10931873342583
C            4.05572922449745        8.38452742949885        1.20935167348921
C            3.63959762813568        9.59046608906723        1.94792773573108
C            2.99665075550644       10.67266458626838        1.29282061307781
C            2.62232313269010       11.78144339285575        1.97667811786570
C            2.86168284499515       11.90263593788812        3.36722359904571
N            2.48133930554177       13.00920153581843        3.98846020694230
C            2.74000721140534       13.09715572401323        5.32260575103116
C            2.36273300158675       14.26230121131503        6.01276883955173
C            2.60558179959008       14.40494082941145        7.35287955373400
C            3.23612734408705       13.39023533801377        8.06210400220129
C            3.61640638963312       12.24030796432784        7.41856224361192
C            3.37798284359459       12.07595949163924        6.05701227263573
C            3.78266072765450       10.86839783385014        5.37293426105158
O            4.34252526882325        9.94587399661233        5.94864943024765
N            3.49348352029908       10.82534261976207        3.99746954405558
C            3.86208387458794        9.70782021538185        3.29476443357656
C            4.01363359950086        7.12297462807265        1.80902676484888
C            4.40323395173396        6.00028703367508        1.12224628566861
C            3.31165241444141        3.51847417980895       -0.44039209531478
C            2.73939654847646        2.29322026753303       -0.19601676978152
H            1.34605500240475       -1.27075448483337        0.41906532636320
H            1.13728756468936        0.12325624591395       -0.66070429527357
H            1.30110141955765        0.36389818154715        1.10959932997127
H            5.50689784728924        0.38431380255507       -0.27187310219018
H            6.53143391487582        2.58486457933168       -0.70703081528220
H            7.56055944641685        6.28355187851189       -0.73414704301261
H            9.33900176809887        6.41297755572769       -2.43728668307475
H           10.13680426431320        4.69065861223782       -6.55110290898077
H            8.37487575344464        4.89537064039865       -6.47758328129262
H            9.15546532855265        3.47586245253346       -5.70748146829002
H            7.07137121461138        3.85894632439483       -4.97768383676886
H            5.30952296975135        3.74521338327635       -3.28560340653985
H            5.24922257649335        7.42229839474639       -1.80936281160010
H            4.56635168611417        9.43178463464101       -0.58447444241587
H            2.79051353192393       10.59482664763510        0.23972908251238
H            2.13188744002599       12.59541611062345        1.47346957322014
H            1.87606640584495       15.04681057191505        5.46049296319818
H            2.30804254736411       15.30749370271437        7.86101861576252
H            3.42773992082238       13.50887720790890        9.11585225221378
H            4.10826038022604       11.44741165376943        7.95535177900030
H            4.36000692542020        8.92512391366091        3.83630854684696
H            3.65278491124019        7.03403600990687        2.81878310238547
H            4.37382143113821        5.03581360967944        1.59783840181654
H            2.70009098114117        4.40159511023585       -0.50131696584977
H            1.67602461245735        2.22681794670747       -0.05619913579310
