105
 energy: -21.723514139241 gnorm: 0.000231384163 xtb: 6.5.0 (97a52f5)
C            4.00520139018772       -4.16803576913302       -0.96784833504047
O            5.23753767763472       -3.67442205493793       -0.49316546379467
C            5.19016728600463       -3.11625205454612        0.79570442869287
C            6.36189909853768       -2.54642135555434        1.30070802754547
C            6.39886762785433       -1.98558478865757        2.55407829321439
C            5.26396972212195       -1.97452781140669        3.35737407994241
N            5.30427180771026       -1.44229697186815        4.69489289560124
C            5.97409080973217       -0.19570738932121        4.94456474260834
C            6.76400708277254       -0.02563669085656        6.07675244600310
C            7.43124134602174        1.15449515947366        6.29549997414169
C            7.34229325446550        2.21460926559469        5.39006365360886
O            8.06307828312810        3.38454043169509        5.68543030850202
C            7.98457883746909        4.39090641108624        4.70149591580192
C            6.54686131219708        2.03756165347428        4.25490686807616
C            5.87900569637988        0.85580881462366        4.03892073255045
C            4.78461300828455       -2.23069902051352        5.76311869541592
C            4.23553855031914       -1.66568860548055        6.90737967749641
C            3.75123819207318       -2.47392303410806        7.90098544242433
C            3.78166537236728       -3.87629682191202        7.80767463644241
C            4.34979941981872       -4.46294484163771        6.65658560074245
C            4.83176628595449       -3.61771504514933        5.67652399378355
C            4.61913258583410       -5.96378250686154        6.49860732417258
C            3.40614132661053       -6.86624611018906        6.75383638154704
C            3.18695529552183       -7.89969617821788        5.86499599931127
C            2.23398561869123       -8.89430732811091        6.04962272599642
N            2.14497473134762       -9.95584110217011        5.10722358422473
C            3.25463368138368      -10.19510399656160        4.21713292393878
C            3.07081305667964      -10.20416953284083        2.83885477038378
C            4.14312003019837      -10.34528367885448        1.99223736240822
C            5.44263808009004      -10.48710544484781        2.48580055291269
O            6.48532877228507      -10.61054064391200        1.55188232276799
C            7.76689841252576      -10.76805193087194        2.11724414126320
C            5.61756928544904      -10.49316895302338        3.87179351639991
C            4.54413249180837      -10.35275878860677        4.71721926132504
C            0.97259514235269      -10.78038168675244        4.99452280079476
C            1.09550545469284      -12.15460371117613        4.81984698343468
C           -0.01860459261509      -12.94804695075720        4.69771121198668
C           -1.30380101244892      -12.40186681481748        4.73960908654798
O           -2.38997682114041      -13.28436942494533        4.61048241800472
C           -3.65822760435362      -12.67128128812726        4.66122847690053
C           -1.41990075567869      -11.01917644428915        4.90538179005345
C           -0.30340928065714      -10.22701802921769        5.02770834221147
C            1.44917490035936       -8.83447703233924        7.19466194677128
C            1.64074517850766       -7.82585602146716        8.10198537362159
C            2.61066862440689       -6.82454542296071        7.91807645703426
C            2.75861512434328       -5.86062998582574        8.98634097267899
C            3.26058828095235       -4.60947023067106        8.94074170839246
C            5.15835315116975       -6.24154806758989        5.07468182462546
C            4.55388541138824       -6.05628773439416        3.84609216165448
C            5.23294750454994       -6.41780669311634        2.69814219858279
C            6.50374398255865       -6.96214550131906        2.77153863456141
C            7.11666152479357       -7.15101562754061        3.99305795266003
C            6.43751022571874       -6.78858324885191        5.14722862662889
C            6.83876257330213       -6.88536284851520        6.55293918286694
C            8.02168974610229       -7.35539174528599        7.10520947773487
C            8.16960971874502       -7.34106213398518        8.47648879205978
C            7.15338702270792       -6.86482640254128        9.28727676387221
C            5.97421717530294       -6.39758464752491        8.73833908366879
C            5.81037278940604       -6.40555638058904        7.36772615000828
C            4.09213665446950       -2.53649108445014        2.86020885977515
C            4.05258533693878       -3.09577591346657        1.60621692156697
H            4.14597530010538       -4.54326387153781       -1.98234743560465
H            3.26524262087429       -3.36670955311282       -0.98892954268475
H            3.66060991820667       -4.98658078441248       -0.33469603189660
H            7.24191479092036       -2.56051887007001        0.68250490428090
H            7.31037695327799       -1.56132398332695        2.93702553305926
H            6.85676193931837       -0.84029934036551        6.77334258412380
H            8.04334357665791        1.28204568456956        7.17070125771777
H            8.60217841172107        5.23410675281057        5.01369192139353
H            6.95326683302128        4.73015034931736        4.59588867666028
H            8.36072888521038        4.01273820059452        3.74988314576065
H            6.45444370398005        2.83365503381933        3.53896096855162
H            5.27006969032354        0.72752424579852        3.16110386979129
H            4.18667407208708       -0.59435595175954        6.99355456259631
H            3.32475389129188       -2.02593462905911        8.78239849075132
H            5.30773984271031       -4.02835801581227        4.80691875288644
H            3.80035677342756       -7.97888440091735        4.98867912148359
H            2.07654064028416      -10.07864162561096        2.44753526928526
H            4.00156471574466      -10.34098964560918        0.92606545533030
H            8.49714185230991      -10.85253341789136        1.31138909289030
H            7.79966933779141      -11.67715682785844        2.71932194219042
H            8.01632128248844       -9.89920789872188        2.72742572003765
H            6.60358204094270      -10.59961738146094        4.28560185545240
H            4.68863978805009      -10.34654586928407        5.78365075052896
H            2.08031567990673      -12.58669875342234        4.78634077206902
H            0.07919477407544      -14.01120693563533        4.56722121018909
H           -4.42336236891374      -13.44131533049198        4.55400121014224
H           -3.76069110113985      -11.95718117931821        3.84299978443736
H           -3.79340880879784      -12.17218571235283        5.62175605075343
H           -2.39361837318311      -10.56540257634013        4.93511781994355
H           -0.40260999916499       -9.16131196230885        5.13882207022929
H            0.71783631482072       -9.60251778800858        7.37403536406986
H            1.03647262963049       -7.79850764548413        8.99284056967521
H            2.35185130825031       -6.18029814939130        9.93349094057848
H            3.21002547548941       -4.03853356920960        9.85521711534139
H            3.56321158345947       -5.63886532011571        3.79616442026368
H            4.76959392456662       -6.27234300435743        1.73650190781901
H            7.01655319918813       -7.24461988992463        1.86680912678332
H            8.10323263997531       -7.57389687931691        4.06146578557785
H            8.80424371608169       -7.72244668068272        6.46490933815374
H            9.08294469732351       -7.70288145654854        8.91951779287689
H            7.28208634790236       -6.85888256092200       10.35719642065300
H            5.18679555184812       -6.03084160313295        9.36881147298912
H            3.21352224002779       -2.53043369623534        3.48159314998029
H            3.13530282225333       -3.52839972022620        1.25088513357996
