92
 energy: -19.094836587333 gnorm: 0.000229323585 xtb: 6.5.0 (97a52f5)
C            1.22901043567560       -0.77101323018237        1.28035972031000
O            2.60479416689640       -0.70506307213591        0.98031074747598
C            3.31141948042305        0.28794587403577        1.67637494238672
C            4.67778493290240        0.41751459808354        1.41127147394381
C            5.43898581064277        1.36732320655621        2.04594895615117
C            4.86604179907852        2.22898429959199        2.97574228688443
N            5.65532734330402        3.22666395345818        3.64726503455507
C            6.63154395805823        3.97213430480571        2.89898993599506
C            7.81431849617899        4.38339559703069        3.50512641571262
C            8.75458065682943        5.09178274352070        2.79962113010775
C            8.55378304765081        5.42259067732684        1.45667596694673
O            9.56662961569534        6.14593176135193        0.80784775685666
C            9.32181589901252        6.41349946020736       -0.55419085379037
C            7.36067780001700        5.01136486806909        0.85513248918830
C            6.42164313896174        4.30161192308262        1.56348512961493
C            5.38845824325100        3.58211621480300        5.00700636337525
C            5.22402893849767        4.91628051156352        5.34851727381914
C            4.93672308053236        5.29954529237920        6.63900702562132
C            4.82111931933960        4.37076603166715        7.67428122755166
C            4.50412229653561        4.76961313302056        9.03557887948068
C            4.21585563806711        6.09085123953892        9.36878662952135
C            3.95150182089840        6.46767142425814       10.67356065196405
C            3.96548727112353        5.53828859086862       11.67781155280751
C            4.22755110107412        4.18717095083453       11.40907322599385
C            4.27508667280774        3.22119134191993       12.46201350355649
N            4.00414432781654        3.57416022014215       13.82106087946481
C            4.86427149872527        3.08834489462889       14.86642579038322
C            4.34922965528519        2.66582172190969       16.08774331455715
C            5.18268611435446        2.21194287181703       17.07971136498518
C            6.56729440386076        2.15943998034456       16.89547988260648
O            7.34811261741407        1.68552371296708       17.96117546592071
C            8.73534875067354        1.66074394588896       17.71182473835738
C            7.07763136030829        2.58178795344298       15.66460982030127
C            6.24141622838721        3.03498035506336       14.67380924418176
C            2.81418050390339        4.30112118879507       14.17432523907630
C            2.82879741815624        5.24747961982631       15.19395285202355
C            1.68952952550852        5.93932251610956       15.52201871995807
C            0.48612508662372        5.71550708682357       14.84697117839843
O           -0.63319930205599        6.46122050562361       15.24808823234110
C           -1.82062496219863        6.16687607704833       14.54777119664650
C            0.48031222308932        4.76628804396502       13.82080508794521
C            1.62170717150195        4.07636443609827       13.49345821378967
C            4.61040504268977        1.91275389461949       12.14675334609674
C            4.84584585641024        1.52163505395388       10.84807688511180
C            4.78327812665548        2.42357142005289        9.78493349007182
C            5.01411308880336        2.01175442159793        8.41010015511628
C            5.22714451391572        0.67944428981159        8.06439823703116
C            5.48198755600846        0.30166066579352        6.75780509162147
C            5.52914062181881        1.24046671180036        5.76322517926979
C            5.30405945303611        2.59663105660691        6.03899294018790
C            5.03867525558746        2.99478582649998        7.37724610335054
C            4.49905872334891        3.78963254484385       10.07171302694311
C            3.50765572724506        2.10314359043740        3.24946488560204
C            2.74369934713354        1.15496073537229        2.61444063512866
H            0.77912559483639       -1.56594535136560        0.68409916672578
H            0.74638108095783        0.17427537559694        1.02810583633414
H            1.08812821033243       -1.00115275523480        2.33732277321011
H            5.12195464266005       -0.24796868323879        0.69247666004425
H            6.49081074692325        1.45334063252404        1.83643534646813
H            7.98365674269434        4.12872054781768        4.53671196182326
H            9.66989501156432        5.40467808600611        3.26990463373489
H           10.18005236507458        6.94686782792597       -0.96505405940420
H            8.43483360969959        7.04008267134399       -0.65703955293458
H            9.19431382292673        5.47839864037514       -1.10130515791231
H            7.17122072009457        5.25426450520424       -0.17442041112741
H            5.50312565912147        3.99670689788988        1.09347289532496
H            5.30186229387086        5.65563824606397        4.57062631634639
H            4.80991773186380        6.34636034213003        6.84434602065034
H            4.19188288612501        6.84429619980416        8.60340585113963
H            3.73853720593860        7.49948032329552       10.90059667817395
H            3.77877231364179        5.84121023315984       12.69149905009029
H            3.28481585116074        2.69416661169451       16.24146312081929
H            4.78234408261039        1.88629235486233       18.02336928165872
H            9.24270619929203        1.27767759442463       18.59823039687171
H            9.09603231564281        2.66999911408944       17.50837931490942
H            8.95164560496959        1.00151621533209       16.87002621996848
H            8.13744167463345        2.55557604521488       15.48860317430169
H            6.64324330642120        3.36587817745666       13.73205574969643
H            3.75022341893368        5.43342451460081       15.71747885592675
H            1.70223591113131        6.67042505279674       16.31078801412443
H           -2.62389824901469        6.78853098297339       14.94543157689539
H           -2.08553350771671        5.11781560019070       14.68703772017099
H           -1.69396789507456        6.39088860667211       13.48770257244120
H           -0.42690452301474        4.57111581644108       13.27887487897475
H            1.60876910118581        3.34623864832340       12.70322485575578
H            4.65985970808839        1.19213891779012       12.94433280554337
H            5.09334409105153        0.49301795117621       10.66145425936969
H            5.19148820266477       -0.08309375637657        8.82025999154569
H            5.64947848373324       -0.73684405691975        6.52338058458783
H            5.74689328002064        0.94378254643949        4.75376380301843
H            3.06259294154366        2.76901013266384        3.96797509677786
H            1.69628246607311        1.08246215317992        2.84346505545759
