78
 energy: -16.508362787355 gnorm: 0.000463375819 xtb: 6.5.0 (97a52f5)
C           -1.95109649019326        0.47733062464242       -3.37536653929593
O           -0.88261891773991        0.34477787823759       -2.46519650112331
C            0.35541571664733        0.03712488267845       -3.05300512911385
C            1.45801662142657       -0.10292116085604       -2.20576820034905
C            2.70285145532209       -0.40289339418473       -2.70123368843757
C            2.89882029460246       -0.57581236052382       -4.06740127284117
N            4.20708242677798       -0.87098939481679       -4.59294746068838
C            4.99745047614866       -1.88673662786825       -3.95770856040102
C            6.38838256478862       -1.81466239562307       -3.97727587800795
C            7.15218355721186       -2.78814427046719       -3.37398590090419
C            6.54180060302763       -3.85283882475976       -2.73998007832638
C            5.16338319723526       -3.93935362004989       -2.71181103560452
C            4.39767539065704       -2.96639883322582       -3.31382604354022
C            4.65191551798218       -0.28707380493433       -5.82138634583583
C            5.25066298910464       -1.10289494791355       -6.78601295420903
C            5.66239896922482       -0.61047400008181       -7.99658384831220
C            5.50590606006050        0.74667326244414       -8.30968279952467
C            5.91220500230039        1.28357837420954       -9.56056528951261
C            5.76595948356541        2.60355407991102       -9.83631067641268
C            5.21467435752831        3.50732890836697       -8.88994031040743
C            5.06173728878067        4.89217213015554       -9.16551391664470
N            5.53430052893838        5.47275140425514      -10.38590103956242
C            4.74999832410758        6.46565081311763      -11.06168767760582
C            5.35515313025825        7.51806979841014      -11.74451566814235
C            4.59461652484552        8.46745386402529      -12.38914939485962
C            3.21593928740114        8.38462580792630      -12.36480825065418
C            2.60034969365346        7.34696311848743      -11.69221849632304
C            3.35889863776760        6.39667922630253      -11.04685861401594
C            6.86050988038040        5.17739799635827      -10.86537819069513
C            7.92272139612606        5.05655894726344       -9.97559227243049
C            9.18081210643083        4.74154844023488      -10.42574282343552
C            9.43227422601565        4.53283469180525      -11.78451013926397
O           10.74652092080172        4.21032129918680      -12.16073154812545
C           10.93016624711761        4.00006434658503      -13.54267165638237
C            8.36035306200766        4.65752004998221      -12.67298765228179
C            7.10204526925578        4.97343284852737      -12.22041935564671
C            4.45437147709468        5.70814659544066       -8.20647833166971
C            4.03342876623389        5.21436694027773       -6.99924283820321
C            4.19093069173490        3.85754050026252       -6.68320254796716
C            3.78669469561209        3.32082302795544       -5.43141605155768
C            3.93930950420211        2.00188056799553       -5.15258209442089
C            4.49118757103752        1.09696783767106       -6.09790373989864
C            4.92302963453272        1.60844648401130       -7.34800895857080
C            4.77705071656994        2.99543673568377       -7.64236530859651
C            1.80674274743524       -0.43866284835698       -4.91812258116522
C            0.56033173527729       -0.13816598405184       -4.42444720340459
H           -2.85852489836227        0.71494578428514       -2.81871003557140
H           -2.10332022126007       -0.46026227047033       -3.91158521052771
H           -1.74652867259768        1.28769710232388       -4.07633348695485
H            1.30857294645101        0.03187843861044       -1.14923267450871
H            3.54549611735790       -0.50010118498976       -2.03925347738669
H            6.85805071087616       -0.97944372333684       -4.46669332122489
H            8.22747741224825       -2.71882967323919       -3.39587218369140
H            7.14035742700493       -4.61506088708264       -2.26863558702582
H            4.68653514034327       -4.77116233428400       -2.21960892829582
H            3.32411957032134       -3.03511595490206       -3.30310817809541
H            5.36486366358855       -2.15008936422693       -6.56703052054612
H            6.10918644862673       -1.26575650901904       -8.72420760289291
H            6.34095819047388        0.62115990736204      -10.29242604082215
H            6.07140994637489        2.98470400468238      -10.79284505694008
H            6.42878809826794        7.58523826930885      -11.75222359621523
H            5.07545177835801        9.27750814121650      -12.91278020341289
H            2.62167967990351        9.12853505781830      -12.86962202516537
H            1.52479956764663        7.28102647064342      -11.67317599733695
H            2.88480111588875        5.58242573438845      -10.52742941377988
H            7.74004034726837        5.20908446572773       -8.92633351076796
H            9.99998469999756        4.64542919214423       -9.73540425348098
H           11.97850487688040        3.75944027586718      -13.72450391924373
H           10.67735820256268        4.90585307422234      -14.09534277274854
H           10.31397358685889        3.16484837324641      -13.87856114098231
H            8.51799109113793        4.50177289242072      -13.72453072140519
H            6.28056249288948        5.05704945559522      -12.91047988310354
H            4.34293509851181        6.75540136352427       -8.42664383329782
H            3.58048889071957        5.86906325925162       -6.27487106152231
H            3.35669545184653        3.98274384980247       -4.69982762929929
H            3.63831118866463        1.62254322890700       -4.19393968732794
H            1.95690678774962       -0.56954643795296       -5.97545609732775
H           -0.26505007599001       -0.03501901650869       -5.10482708462817
