38
 energy: -7.743542003781 gnorm: 0.000670590209 xtb: 6.5.0 (97a52f5)
C            1.08138418624912        0.10966824577310       -0.12397530719485
O            2.48182705613111        0.13189754226315        0.03508322415990
C            3.09841185098018       -1.13146834908712       -0.00131100964935
C            4.48942750654560       -1.17753834974770        0.11863128636206
C            5.16829794586914       -2.37140982646158        0.08368159965137
C            4.48375191014580       -3.57157352257020       -0.07089034850934
N            5.19534725577099       -4.82328364049166       -0.12531090266540
C            6.25467502258915       -5.07349887142730        0.80776683595762
C            7.39180711158304       -5.78315114411864        0.42687378804769
C            8.41411023109853       -6.00676044193368        1.32168508335024
C            8.32198820972007       -5.52543148156645        2.61336323598845
C            7.20257980325482       -4.81742376680461        3.00628305035943
C            6.17929422329473       -4.59187156340967        2.11300541255067
C            4.85160609097122       -5.78628669891867       -1.12954892318683
C            4.96299390563651       -7.15240655092682       -0.87982282676762
C            4.62618613120941       -8.07399831566437       -1.84581308089491
C            4.16933157086956       -7.65034983411190       -3.07882217242824
C            4.04854404297403       -6.29961744739534       -3.34112793742933
C            4.38541173145930       -5.37641174812183       -2.37692907754913
C            3.09801597099646       -3.53537469518711       -0.18261513794874
C            2.41693742208913       -2.34165778890398       -0.14999931690458
H            0.70827190658986        1.13435777462149       -0.09125800404394
H            0.62202139829690       -0.45758915796222        0.68696267232147
H            0.82188877559613       -0.32846339978036       -1.08912267492151
H            5.02123152391278       -0.25039178412944        0.23712465460605
H            6.24064310259149       -2.39264956353246        0.16740991307025
H            7.46682588244567       -6.14184448372765       -0.58472347445433
H            9.28881718592787       -6.55570108687695        1.01302572879138
H            9.12273845318763       -5.70091285996407        3.31301322268957
H            7.13037392968034       -4.44079688561466        4.01356080159680
H            5.30322616569514       -4.04504867146948        2.41494557466730
H            5.30536165418088       -7.47846252390608        0.08658218918469
H            4.71751862275983       -9.12772410521037       -1.63916158548206
H            3.90588302405189       -8.37228728378771       -3.83433210927106
H            3.69006030695118       -5.96793762700904       -4.30184835968291
H            4.29960786884858       -4.32332875957036       -2.57916843548310
H            2.56458458188431       -4.46292786900073       -0.29431378556925
H            1.34607643796007       -2.34379346426879       -0.23845380331767
