50
 energy: -9.309842418501 gnorm: 0.000952858784 xtb: 6.5.0 (97a52f5)
C            2.41092538849565        0.20008076958657       -1.02183107429293
O            1.86664912677584       -0.42474079532148        0.11977358998602
C            2.65788026703303       -0.35755728305703        1.27784922816025
C            3.95718548680500        0.13337559584742        1.27751809650914
C            4.70656343760414        0.19138600779947        2.43178048671653
C            4.18753394681919       -0.24093154865284        3.64104016801985
N            4.95859221489526       -0.20315891145889        4.83673238126367
C            4.51147883186283       -0.56754682444246        6.11393517419258
O            3.39722726495571       -0.93622855129651        6.43239045975093
C            5.66326441881509       -0.43997381773139        7.02653639002971
C            5.74046526979970       -0.67559456402083        8.38815620289733
C            6.94814694037898       -0.48101189005003        9.02516728706382
C            8.06129692407014       -0.05778333822355        8.31592154170506
C            7.98503508630174        0.17636271747502        6.95509242565960
C            6.78121703204637       -0.02070777868481        6.31399995329075
C            6.39383146546146        0.17313323670619        4.87401221677484
C            6.62143893520679        1.59437013519853        4.40293565167021
O            6.18213886645162        2.51385117200452        5.05433798768205
O            7.32297254458541        1.69253013144868        3.23256203048634
C            7.53718207226808        3.05273438837190        2.76978448270511
C            8.32917575711351        2.96807287466519        1.45594108406037
C            6.19045824572596        3.73937335340161        2.50612207474943
C            8.35438066064494        3.83567780377054        3.80528354355170
C            2.88935236115001       -0.73170144416890        3.65334283033954
C            2.10981591517380       -0.80826377926112        2.51054748936999
O            0.81758343000668       -1.33090213606826        2.68311558251960
C            0.09515988054849       -1.56847841751313        1.50340646208126
H            3.31075699412255       -0.32845841123798       -1.34074848352482
H            2.63237568654234        1.24600366049787       -0.80276341915955
H            1.67338196059180        0.15492374002101       -1.82418092868170
H            4.39437337007941        0.47772966258825        0.35843196507034
H            5.70125183094704        0.59749510362433        2.40722683561048
H            4.86621062879906       -1.00215513369333        8.92362590347928
H            7.02616032147053       -0.65820069620961       10.08520240982731
H            8.99603558893148        0.09243773175806        8.83002586760131
H            8.84129750602065        0.51146392695301        6.39640994231076
H            6.95753066788895       -0.51983129267207        4.23650200905650
H            7.77127836050950        2.40049602198421        0.71357533165057
H            9.27740740913893        2.45930305432903        1.61883401396765
H            8.53290515726740        3.95843877414636        1.05181645750474
H            5.61269717957434        3.17705368269439        1.77530736075427
H            6.33174627377215        4.75046001379209        2.12749915708959
H            5.60639659721123        3.79553862991357        3.42247096729726
H            9.30048188231545        3.33383865868491        3.99907322643771
H            7.81205811826761        3.90247343566546        4.74622330199865
H            8.56445020462798        4.84632522204867        3.45858215728478
H            2.46471034964502       -1.06714734317456        4.58085424861539
H           -0.84438633201775       -2.06280744050403        1.75437927510315
H            0.68137666956670       -2.20802481169752        0.84153144535007
H           -0.11058819626802       -0.61641329584053        1.01159720841541
