48
 energy: -9.686261426315 gnorm: 0.000624295519 xtb: 6.5.0 (97a52f5)
C            1.17034056828739       -0.25625509024841        0.52537521905787
C            2.65276354017372       -0.43994917620394        0.52880500194695
O            3.32014825472425        0.07239532469165        1.40037380881832
O            3.16200123562502       -1.20081571340625       -0.48163943389079
C            4.56282239364867       -1.27998068709930       -0.36854705582198
C            5.18281621441701       -2.15734975068070       -1.43906339635979
N            6.62608604764261       -2.26596285357657       -1.29834312522278
C            7.17092611358207       -3.54676648140558       -1.14228025964447
O            6.45891596006280       -4.53500654327706       -1.11083373096092
C            8.62847431014640       -3.66040043498467       -1.01660924161988
C            9.21586015084722       -4.88949932620105       -0.84045852034130
C           10.59285490532749       -5.00495235481948       -0.70157283684952
C           11.38784371626544       -3.89426267464086       -0.75081294212070
C           10.84346647161130       -2.61611943363622       -0.95146897740457
C           11.65190722270705       -1.42992220291323       -1.01414299110757
O           13.05066156522009       -1.42386162070716       -0.96918775804602
C           13.80746991720820       -2.46406203399669       -1.55707870916148
C           14.78941223115065       -3.09238806432018       -0.79119257723355
C           15.52792044433032       -4.13032016269444       -1.30472416720584
C           15.30927589129747       -4.55684507561874       -2.59781726530707
C           14.35890882113562       -3.93097635477659       -3.37909821044770
C           13.61060700378324       -2.87717509676052       -2.88741295436744
C           12.61253786056622       -2.19578944847860       -3.74982722459435
C           11.01531895288833       -0.19919466584371       -1.11690578725063
C            9.64364611589343       -0.09712851642053       -1.22062787801372
C            8.84362996048977       -1.21961295816429       -1.21133164518322
C            9.43694903493198       -2.49734633326013       -1.06552831507175
C            7.39212645773534       -1.09222647450658       -1.33724388451915
O            6.86908941631254        0.00178314611627       -1.46896156578813
H            0.91867072757179        0.80297877076030        0.52411958293852
H            0.72764492258372       -0.71198860805494        1.40941192122654
H            0.73049605692465       -0.71713076105839       -0.35774856799122
H            4.80070291343411       -1.65815314743885        0.63329943106400
H            4.96163814687211       -0.25895796269142       -0.43100575370973
H            4.95811020198163       -1.75922268186577       -2.43266487690447
H            4.75278432868655       -3.16259333153798       -1.39164113265737
H            8.58631336532215       -5.76224503151790       -0.80155632605271
H           11.03413645073027       -5.97662189265909       -0.55196769698149
H           12.44860112062369       -3.99781004624915       -0.62315734750129
H           14.94509043063829       -2.75226776338982        0.21740300160421
H           16.27633790937396       -4.61227687681447       -0.69734132591728
H           15.88589930635172       -5.37336386887954       -3.00033455220344
H           14.19720728675505       -4.26052844163612       -4.39101758977300
H           12.90237210781168       -2.24027356876747       -4.80003080078139
H           12.52230180366998       -1.14441950712586       -3.47622002845783
H           11.63104389015179       -2.65965559852533       -3.64987211247431
H           11.62781802308983        0.68463067435994       -1.13726186527693
H            9.17381022943048        0.86693070093671       -1.31814753643049
