45
 energy: -8.429941326050 gnorm: 0.000469045257 xtb: 6.5.0 (97a52f5)
C            1.37771001558520        0.17930721389529        0.71663901335199
O            2.71440813157898        0.62570535331755        0.70123780231844
C            3.27902200642206        0.74982200517079       -0.58007096905620
C            4.61103312044181        1.15988039046332       -0.66346379930811
C            5.24078230359270        1.29707311192501       -1.87648703056431
C            4.56579183105540        1.02623844528651       -3.06366688888923
N            5.22774937954501        1.11961467717093       -4.33262829442257
C            4.58999234119478        1.73475395055904       -5.42467512369609
O            3.42171073295006        2.09148100784073       -5.36824073027849
C            5.36576088088392        1.97025437470164       -6.64941289605233
C            4.75661995667161        2.48054525265538       -7.78704365545553
C            5.49310350551339        2.75354243196887       -8.91743750149125
C            6.86041313013920        2.52894454424690       -8.92678162612741
C            7.48467383709147        2.02719176632851       -7.81049190912128
C            6.75052468748406        1.73220756542895       -6.65937722608412
N            7.35176392778174        1.19194035290055       -5.53613651550521
C            6.57082290180102        0.50150581507190       -4.50007743697685
C            6.47105232007869       -1.02768942525722       -4.78134117831271
C            5.82716547495400       -1.73947614829046       -3.58193359048106
C            5.61901235562307       -1.26652194146503       -6.03274287251150
C            7.87767216103621       -1.60411482665071       -5.00350978045646
C            3.23326496070539        0.63464551811449       -2.98534055463640
C            2.60098173745847        0.49495459501393       -1.77360008201633
H            1.04724263097260        0.10288763084535        1.75331339073427
H            1.30798101623973       -0.80474081617945        0.25108548897987
H            0.73959696450747        0.89424648967203        0.19551974204399
H            5.13674836461392        1.36798601664594        0.25153437581554
H            6.26005906384744        1.63745423680821       -1.91646637889345
H            3.69689218343824        2.66742155624805       -7.76525528650140
H            5.00708635214377        3.14840764139106       -9.79428688055859
H            7.43451570240761        2.74729692257805       -9.81216906429291
H            8.54482457854162        1.84489471009310       -7.81364932615735
H            8.34713235220247        0.97915726852665       -5.53631976544666
H            7.10745502195294        0.62875114446742       -3.55260662196068
H            4.80245316101759       -1.40615724487531       -3.43261479444344
H            6.38424200478062       -1.54483961806989       -2.66652983393208
H            5.80236381543883       -2.81739890475514       -3.73724565262699
H            4.61613725552905       -0.86323333599775       -5.90043758323752
H            5.52856539035589       -2.33085885563065       -6.24642010427192
H            6.06320970859343       -0.78590780067654       -6.90278929290088
H            8.52412950072530       -1.39478046724080       -4.15232734150248
H            8.33883561621873       -1.18160797296133       -5.89458575109422
H            7.83704644218131       -2.68465563804770       -5.13620614450077
H            2.70139702728436        0.44775495177362       -3.90182090296200
H            1.57124414742108        0.18880605495326       -1.74821942652509
