43
 energy: -8.948163982858 gnorm: 0.000525362252 xtb: 6.5.0 (97a52f5)
C            4.19088944074752        1.72054356055311        3.01612604539775
O            4.22842877321034        1.19937280238714        1.70672844534982
C            3.92386663894325       -0.16949906512547        1.60839373760296
C            3.87614797298737       -0.73249525365913        0.33182010993241
C            3.58377922536350       -2.06089500987223        0.15086342754852
C            3.31597568811285       -2.89248413879326        1.23516920264443
N            2.98877525662607       -4.28303662286878        1.04349887444003
C            3.52396935881029       -5.26640481821693        1.90785489180328
S            4.56960958635248       -4.89585598350101        3.26263643793487
C            4.87686952252481       -6.57764109183815        3.61515510328456
C            5.69911551090899       -7.15424682820198        4.57085542030587
C            5.75234540301775       -8.52640601486674        4.67133878360151
C            4.98967727330256       -9.33093540026249        3.82555610743148
C            4.17415537499295       -8.77188322905724        2.87411680905904
C            4.10909076275368       -7.37320836607463        2.75456526171607
C            3.33378487016462       -6.61334057496374        1.80065345114054
S            2.25202801423649       -7.38915977886288        0.61191570582194
C            1.69206851582045       -5.93776292282608       -0.26254865463507
C            2.12210298499316       -4.66856022466613       -0.00577361994311
S            1.42947839979419       -3.53794173412505       -1.14961343623711
C            0.43237500539687       -4.75614245805098       -1.90316189503589
C           -0.50138680738696       -4.64103989273801       -2.92126274709004
C           -1.14979081877793       -5.77029081638453       -3.36843155848211
C           -0.87355685376288       -7.01698591779163       -2.80832907358095
C            0.04691496835578       -7.14310884447039       -1.79844916083688
C            0.71672041580561       -6.00123433796753       -1.32706701889331
C            3.36481510877801       -2.33244201632747        2.50947155175834
C            3.66535111164513       -1.00557524039486        2.69631108047861
H            4.40062131767446        2.79032151400400        2.97205589898625
H            4.95105054517910        1.23672968280140        3.63095613049827
H            3.19952951376992        1.57312953060807        3.44707254950127
H            4.07988152745129       -0.09742520888557       -0.51206928673396
H            3.58324094240861       -2.48072462323473       -0.83916296441751
H            6.27958548125384       -6.52391864458968        5.22184092165531
H            6.38844973155055       -8.98348211997053        5.41124963107910
H            5.04348233532141      -10.40298300042324        3.91983415994151
H            3.58628828321024       -9.38504889707359        2.21472575572035
H           -0.70284674180683       -3.67472764352011       -3.34989287893681
H           -1.87640554281762       -5.69075568078674       -4.16014717023961
H           -1.39057063277190       -7.88959223172497       -3.17196494555013
H            0.26221126610015       -8.10006853054629       -1.35771993904592
H            3.13344723463322       -2.95313533542586        3.35658511264947
H            3.69402403512759       -0.60678859227277        3.69392374236073
