73
 energy: -14.502146183419 gnorm: 0.000715940747 xtb: 6.5.0 (97a52f5)
C            2.16954488430230       -0.75891994133410        0.27825090752690
O            3.42861324861603       -1.08795528978449        0.81640742514339
C            3.90199707969807       -0.20344045595577        1.79937501336975
C            5.13666647969349       -0.48937501380571        2.38440370207706
C            5.67312157757857        0.32460883121942        3.35277818551657
C            4.99664811329129        1.46331315891225        3.77863788426467
N            5.55302325955059        2.28915826224457        4.78196720868316
C            4.98970930209979        3.45421667144493        5.27617319392617
O            3.95792612080973        3.93657129933331        4.86020849593484
C            5.70984674079664        4.15945953680228        6.39980687004854
C            6.29656955552128        5.45723681215241        5.90214561531124
O            7.47022650310040        5.69543317037358        6.09761145981612
N            5.42141763124067        6.32466941165366        5.27427242565922
C            5.69165884036880        7.64310231522690        4.85055826716121
C            4.68889366922863        8.40698518106587        4.26354796011824
C            4.93926041721752        9.69286214222035        3.84998175702553
C            6.20058702408535       10.27060963072368        4.00433279634710
O            6.36919961186804       11.58798588906585        3.54724638002840
C            7.67232213353754       12.10292055385496        3.68601725389074
C            7.20210633127373        9.50142692239584        4.59904778911464
C            6.94663076134059        8.21601017150537        5.01128199328072
C            4.73908786105465        4.36979464946134        7.59019013651461
C            4.20770313061783        3.05953718142976        8.11138373856166
C            5.03319309861654        1.98173215491280        8.36092486996101
C            4.52933118896397        0.78629450280459        8.84043371229263
F            5.35927988199068       -0.26616904026592        9.06690984696740
C            3.17273487150423        0.67508271317438        9.08395132321805
C            2.33286832284156        1.73696386332124        8.85443218760150
C            2.82991487415505        2.94726582984763        8.36880415476887
O            2.01363286355083        4.03975782237704        8.14161324475262
C            5.27500570651630        5.27550883085653        8.67664585227685
C            5.70169873334373        6.56451214716923        8.46416381542629
N            6.03099717830913        7.16041646325494        9.64988506344334
C            5.79646582874437        6.25514977185958       10.67278942078794
C            5.92249967749395        6.37187231844668       12.06245294704899
C            5.56296257027851        5.31610483082097       12.85028993321108
C            5.06223856105698        4.10988047471775       12.29736324464419
O            4.66239323703193        2.99884683921645       13.06185371329129
C            4.72284633023715        3.18144198473691       14.45695869829257
C            4.94626562118466        3.99710943772463       10.92581522000145
C            5.31470025432353        5.06656407671393       10.09202494886773
C            3.76747523535508        1.74962693987755        3.19790255046642
C            3.22653809710383        0.93939636306790        2.22956444996251
H            1.89940219043538       -1.52000286375895       -0.45519730382290
H            2.22140096936123        0.21098356995022       -0.21863357197134
H            1.41913414144578       -0.74771042157595        1.07013434162919
H            5.66220724768497       -1.36854391655791        2.05604499803329
H            6.62620226672270        0.08747424352163        3.79211413400310
H            6.43359189703260        1.98466404359011        5.17984997195864
H            6.54697786145561        3.54113613051298        6.73967941281199
H            4.51247643977587        5.94080734025968        5.02669277950928
H            3.71071014498937        7.97737352356232        4.13626910680322
H            4.16333088485885       10.28193194931213        3.39402365156218
H            7.68907578848545       13.11181762537713        3.27120795770898
H            8.37779649407519       11.48061082496833        3.13341979146730
H            7.94183777330878       12.14843717095666        4.74221251930438
H            8.18397734010336        9.91533600605253        4.73787198363898
H            7.72268196912460        7.62437516592668        5.46234110356431
H            3.86908081750153        4.89572860961178        7.16525249444731
H            6.09234015289529        2.05989453949693        8.20306447438378
H            2.79181067267468       -0.25861502473151        9.45830432675115
H            1.27995192762335        1.64303309001158        9.05061461410821
H            1.08488357791902        3.81890551997241        8.34143728695905
H            5.75846233049763        7.04601046325392        7.50280661011894
H            6.35671983707072        8.11746213320082        9.78213206809787
H            6.29251719823950        7.28785022010756       12.48718158502361
H            5.65863283497568        5.40545409690274       13.91681191862591
H            5.75554730350563        3.35260326038094       14.76379352244303
H            4.35618720340697        2.27377630209290       14.93825666177461
H            4.08780854110917        4.01913200277271       14.74875050683688
H            4.55892483007920        3.08680407927006       10.51477155419610
H            3.24278291903070        2.62878378481467        3.52474357953111
H            2.27492403515697        1.19319711585464        1.79980226378926
