33
 energy: -6.792971383827 gnorm: 0.000436194434 xtb: 6.5.0 (97a52f5)
C            1.47516113464822        0.60436125930032        0.54769863421292
O            2.67509718812616        0.46641057877540       -0.17836078011581
C            3.24117456138537        1.67586068846169       -0.61655925323874
C            4.41899224106859        1.60561845490211       -1.36399996905796
C            5.03755869053926        2.74077650026427       -1.82725898395125
C            4.51069064052505        4.00120391412987       -1.55480862383874
N            5.14790117234351        5.16423616029967       -2.06509996988063
C            5.20893012328033        6.46015014828182       -1.52814187786647
C            4.90147392919971        6.67054238452812       -0.17100516041907
C            4.96452363694377        7.91448344337173        0.35957123070053
C            5.34661479572281        8.98032168981620       -0.47114115860417
C            5.43354453661528       10.30851481845280       -0.00519456665036
C            5.81353581029324       11.31496181411008       -0.84402287257592
C            6.12303537725453       11.03806049582218       -2.17784722909285
C            6.04885835568109        9.76161045554741       -2.65449436628973
C            5.65897022630373        8.69037801549946       -1.82207020581026
N            5.59711899219441        7.43724580743518       -2.33890423173517
C            3.32731767437860        4.07602997606934       -0.82334991028848
C            2.70661783917246        2.94082181642277       -0.36062792339969
H            1.12191061611659       -0.38872476265439        0.82852477126696
H            0.71726343447431        1.08563128593148       -0.07225051050949
H            1.65253473369361        1.18511464747915        1.45403458205241
H            4.83306789641970        0.63457633734083       -1.57022229486015
H            5.94516134686953        2.66956349684369       -2.40058727058341
H            5.58782169737405        5.07761433714923       -2.97592853854892
H            4.64818495578359        5.82833423139839        0.44716825808835
H            4.73573002075840        8.09362394279763        1.39593759641181
H            5.19577152792489       10.51757473963896        1.02345892905976
H            5.87666673026179       12.32694842436389       -0.47919049123318
H            6.42220227719900       11.83992296816791       -2.83273354575237
H            6.28674773563479        9.54783298452180       -3.68156493208473
H            2.88186974388325        5.04015746820927       -0.65284967980877
H            1.79386035793168        3.03049147731759        0.19948034440341
