51
 energy: -9.983033048809 gnorm: 0.000782685949 xtb: 6.5.0 (97a52f5)
C            2.36838487868287        0.21046886090448       -2.11053929870092
O            2.94170582336986        0.01871878243409       -0.83710190373557
C            3.27780688907272       -1.31238813361841       -0.53710598740872
C            3.80735762047955       -1.57770137445643        0.72786738933481
C            4.15297215216281       -2.85265894532276        1.10414439509837
C            3.98942983450946       -3.92486486014386        0.22887852590360
N            4.32008490643969       -5.23204916606679        0.64910867782336
C            4.29257611587303       -6.41894084276587       -0.10633578148772
N            4.08532414293476       -6.33227423533578       -1.42073904962606
C            4.09906987180433       -7.44970319872119       -2.14737687179214
C            3.89392502428593       -7.30473340570932       -3.55032389881986
C            3.88201342917866       -8.29827586523064       -4.46462679971364
C            3.68535960841830       -8.13488785079841       -5.88529253007083
C            3.68263047850681       -9.26297582439591       -6.71282938148302
C            3.49981920895924       -9.14375138373250       -8.07121358203869
C            3.31628447061961       -7.89856478409014       -8.63983672321439
C            3.31641523895716       -6.77095030653040       -7.84203080912760
C            3.49829895060354       -6.88300628983784       -6.48241990961910
N            4.31650544655649       -8.71359690746988       -1.56967569171429
O            4.32972455027531       -9.77029488568332       -2.27235160774741
C            4.52084744206779       -8.79949302925368       -0.19601567644250
C            4.50629227826859       -7.65352274600529        0.55207005569199
C            4.70995189089850       -7.68753165138415        2.04620440374061
C            4.66408112401908       -9.09596116515481        2.66683360920127
C            5.37914782311417      -10.12258756536638        1.78128743481630
C            4.74734231673898      -10.15883171057211        0.38170307691044
C            3.46980172485114       -3.65958392501677       -1.03417483049071
C            3.11860492994833       -2.38772695464962       -1.41374494335333
H            2.12743454600846        1.26753615046400       -2.22903234886232
H            1.45053138587570       -0.37198065962643       -2.19725839900301
H            3.07822824720071       -0.07785213506881       -2.88624206440288
H            3.93489097123454       -0.75414291051732        1.40779608620481
H            4.55325121470420       -3.03633185934468        2.08556202574768
H            4.64350323202604       -5.30309475320769        1.60743400198045
H            3.74146985067967       -6.29668943211391       -3.88787040274051
H            4.03344602755474       -9.30186518415244       -4.11665663698314
H            3.82608996056636      -10.23478786422337       -6.27291998393900
H            3.49995936029681      -10.02365939418671       -8.69348886710212
H            3.17398795023485       -7.80684153339612       -9.70410194303584
H            3.17484136038977       -5.79964920745384       -8.28705777052439
H            3.49918281947017       -5.99523942329512       -5.87625460404640
H            3.94786257876358       -7.05653742762235        2.51938591012545
H            5.67466687034578       -7.22084087208164        2.27598563262706
H            3.61901716561414       -9.40135204612909        2.79930200783023
H            5.09736453857575       -9.08920906060944        3.67653864963418
H            5.36056111206056      -11.11857700635275        2.24504959625158
H            6.43936102675462       -9.85469289815945        1.69663005424550
H            3.78786260288335      -10.68716542844153        0.41692832753211
H            5.37341820147397      -10.73233915738792       -0.31297235684085
H            3.34674159905175       -4.47514461680334       -1.71926817963861
H            2.71877920665485       -2.22126391632640       -2.39706102697008
