35
 energy: -7.453271807920 gnorm: 0.000896591574 xtb: 6.5.0 (97a52f5)
C            0.91025823777100        0.10869418965583        0.58503663521229
O            2.29664552937077       -0.02367868614372        0.38387433569613
C            2.98364970289688        1.17838996073884        0.13815599976541
C            4.36246593064999        1.09699214557455       -0.06829477822497
C            5.11441128877350        2.21977324320177       -0.30443815219412
C            4.52518095119680        3.48260253734689       -0.35427547104064
O            5.28472583176810        4.62251693288203       -0.54538123458916
C            3.12458886349429        3.58549689073056       -0.17309684933353
C            2.44674854795877        4.87609096796011       -0.20348781476373
N            1.42805009306174        5.26194922663859        0.66277698592088
C            0.98767189125514        6.54784100734539        0.37787253586817
O            0.12026896881888        7.17405789406225        0.96122256957444
N            1.74916206523678        6.97015961854607       -0.72400940611071
C            2.63551065428274        5.94727890585959       -1.07781529746355
C            3.35176254220945        6.36911229727175       -2.25963859731711
C            4.30328831645275        5.74437498527668       -3.06057805644736
C            4.78902462655481        6.41742108926038       -4.15673570409683
C            4.33712006450441        7.69840678614452       -4.46887023220724
C            3.39035476127143        8.32467490150257       -3.68925627609449
C            2.89446850700424        7.65691418667562       -2.58032969083077
C            1.87071074054766        8.06408267661006       -1.60738046354330
O            1.26382770472622        9.11605995984783       -1.59057689331499
C            2.38980614414576        2.43217601698206        0.08653512032163
H            0.49808287245041       -0.88530958115076        0.76548212160171
H            0.44620268553778        0.52991608666529       -0.30788181787538
H            0.72193680318968        0.73690063294091        1.45695806402607
H            4.82396544476375        0.12576474558757       -0.02933640345688
H            6.17607004179335        2.13166180019572       -0.45050431144837
H            6.23662383943692        4.41568707513349       -0.50372880260991
H            1.07882820290143        4.71244920858176        1.43900082936753
H            4.65113674191113        4.75925316377153       -2.80505612895940
H            5.53046339545280        5.94887823578736       -4.78292982902585
H            4.73157261019905        8.20416766458105       -5.33506919484047
H            3.02661011964762        9.30985921935670       -3.92474897098857
H            1.33183527862731        2.52861401456900        0.23552517943149
