96
 energy: -16.861470681605 gnorm: 0.000385968617 xtb: 6.5.0 (97a52f5)
C            2.35097340414128       -0.45893533026600       -1.76792537170818
C            3.77522981566463       -0.21450743860150       -1.39110713028500
O            4.66248650884043       -0.75833938111408       -2.01067825293015
O            3.97877365740425        0.62971475789607       -0.33993699872219
C            5.35729691036985        0.77935362204431       -0.09112780582393
C            5.62394983866989        1.58756728607942        1.17172389042188
O            7.01615270414600        1.70196593487037        1.44084296546001
C            7.28383703374678        2.40586084947750        2.64655227392513
C            8.76534012886267        2.47847054821586        2.95858663553761
N            9.01696449307145        3.08381935728404        4.25820156322899
C            8.57570610657843        4.38993063956831        4.48135211488861
O            7.97137880372700        5.02101217148703        3.63097172967658
C            8.87406897068185        4.97934629043916        5.78322013621781
C            8.56362380185010        6.29284957554748        6.01153253747966
C            8.80195068513047        6.91518339030020        7.24454976155249
N            8.50123269393661        8.25388758500539        7.40542814710892
C            8.09899136868515        9.18292689584012        6.35547133097134
C            8.16417578807029       10.63926419579039        6.78665877425670
O            7.82470350076868       11.51462706077435        5.71695210566105
C            7.92666273024735       12.88986590129883        6.06965957970578
C            7.58466573469848       13.79427799764376        4.89012706789549
O            7.74079199241286       15.16936896397215        5.17366932442860
C            9.35441752011539        6.15635026310831        8.29589361467478
C            9.68116405900383        4.79662880850778        8.07404507702073
C           10.24567434482664        4.01137191057799        9.10920714149703
C           10.53655719548215        2.69301257931071        8.88638735038169
C           10.29732904982523        2.05864349470195        7.65517466022976
N           10.49646682449385        0.67757993868497        7.60853057733534
C            9.63285066835599       -0.27983078623506        6.91266896992229
C            9.66377645109874       -1.67602203102341        7.51043569355305
O            8.85559598356005       -2.57491931309613        6.75992702834174
C            8.92681611057342       -3.91607912943959        7.23159718871874
C            8.01073106537351       -4.83602766296293        6.43116545429329
O            8.01063498320238       -6.16998178615065        6.89602980566811
C            9.80806414292727        2.83711133336519        6.57930811797835
C            9.45772913218000        4.19308331921319        6.81070784976328
C            9.71923372511727        2.32562733623505        5.20940272290916
O           10.24122663739522        1.28076197101342        4.85817756717963
C           10.48536899129149        4.58741544618129       10.43040915961538
O           10.95937001984817        3.90709218244351       11.32433899045656
N           10.14710701034897        5.93188144648927       10.61723935714699
C           10.28593070025011        6.51991728615676       11.94336514644521
C           11.65980973001701        6.31801873912766       12.54947220959242
O           11.76947631466679        6.92994898445781       13.82804052628448
C           13.03552446528298        6.71815617008488       14.44077206023441
C           13.07312157085477        7.28607485658118       15.85287499781695
O           14.33137706654946        7.04659541447811       16.47597243737901
C           14.44943471774303        7.49174816417237       17.77139367608531
C           13.30475271329970        8.18811975194964       18.44295767196487
O           15.46730666581293        7.33996567209325       18.41580248150617
C            9.59708385204667        6.74349437297342        9.61257608660078
O            9.33134423225350        7.90715413247039        9.86687270830806
H            2.10993403369139       -1.51682546480885       -1.67859315797974
H            2.17193333525057       -0.15351753544096       -2.79739182401970
H            1.68292632528761        0.10429745577751       -1.11806422601381
H            5.80983117971561        1.26030515963441       -0.96712707678865
H            5.79750667882332       -0.22219557942118       -0.00871464605692
H            5.14206936719561        1.10909064417108        2.03159999064317
H            5.20413993764961        2.59501386381948        1.07559778995583
H            6.74938212509251        1.90637483890615        3.46269598119413
H            6.87547444535257        3.41842197992747        2.55018187082687
H            9.29333091636553        3.05436024725006        2.19314655560077
H            9.19498359828574        1.47181484916715        2.95787693033197
H            8.11171794935418        6.84991366053645        5.21204125510616
H            8.68447948220423        8.70114666171972        8.30313653969122
H            7.08365057584136        8.93425076544587        6.03125958522003
H            8.74993035880534        9.03551230943509        5.48818937085157
H            9.17461633918211       10.89293786250098        7.12668818193253
H            7.47577710302805       10.83068460782932        7.61750921255605
H            8.94962101437439       13.08378350909934        6.41037441991373
H            7.25363238835690       13.07791322983537        6.91270733564572
H            6.56072886411311       13.61029634273725        4.54081688406371
H            8.24521059318830       13.56750803548129        4.04452560453145
H            7.16684111313807       15.44395750579870        5.91272323787471
H           10.93019936504564        2.11950026408648        9.70581214467218
H           10.91751185802139        0.23837608504536        8.42449983604367
H            9.94331721240183       -0.33227094726117        5.86486032089961
H            8.60869672439157        0.10566371528793        6.90918153710685
H            9.29719975559076       -1.66739731809188        8.54313347125437
H           10.68769606257269       -2.06657656828010        7.52263568896951
H            8.64484356276749       -3.92628011898867        8.29012218752037
H            9.96785874872766       -4.24837645549330        7.16124899957971
H            8.27846357119488       -4.82309927715917        5.36690174796396
H            6.97633173726691       -4.47707218319566        6.49376819469391
H            8.90129976784455       -6.56292511573166        6.83761436937482
H            9.51889368463800        6.08909829157045       12.59339199027130
H           10.07100371624156        7.59054283125325       11.86733370948920
H           12.43695792729246        6.73156834453127       11.89676602129532
H           11.85438218664131        5.24660318923330       12.66854599371987
H           13.80525922558960        7.18750353867335       13.81803048099641
H           13.23820053085280        5.64161213739889       14.46251610789896
H           12.28577012280717        6.82287265886751       16.45695675410987
H           12.89149906650961        8.36567612597211       15.82450245449633
H           12.44297508441312        7.53056330831654       18.54320849480673
H           13.00794109466377        9.08353929877340       17.89982033320212
H           13.60116865483813        8.49581950676120       19.44466863873527
