37
 energy: -6.825733195096 gnorm: 0.000628116581 xtb: 6.5.0 (97a52f5)
C            0.84457904748101        0.32344781549826        0.03939099016642
O            2.24594977905772        0.18499888804721       -0.01841129936964
C            2.95611303066965        1.39972564401371       -0.10240014537780
C            4.34117171295686        1.33619211109247       -0.25506009096641
C            5.10270785009322        2.47739118600043       -0.34049221178449
C            4.51662882847177        3.73968890337726       -0.28475676292064
O            5.28827425162597        4.89346222198243       -0.34045243080880
C            3.11234572979736        3.82417028539572       -0.14672877595146
C            2.42730373759348        5.12188978614155       -0.07994767977861
N            1.53887981016718        5.44807007333490        0.85145783160110
C            1.09769093588129        6.68617501673182        0.54695396394652
C            0.08567456235966        7.43429991066596        1.33133735985532
C            1.70262403689361        7.13832512124375       -0.61707478119402
N            2.55085931324036        6.14645168928673       -1.01748452995050
C            3.32651070585282        6.16804274175158       -2.27372800940034
C            3.38904087201339        7.57839572643443       -2.87341101142760
C            2.02570891697256        8.29289636012304       -2.81305925635370
C            1.49660737001808        8.40915387580675       -1.37014269870951
C            2.36637427474946        2.65759554011726       -0.04342058970198
H            0.39537482514915       -0.67052714980730        0.04751819163702
H            0.48661396116129        0.86437679684096       -0.83776360317500
H            0.55910843642870        0.84671703120542        0.95298720337875
H            4.80433057383600        0.36647913514616       -0.30019224956724
H            6.16983618546747        2.40235290458394       -0.44879469470351
H            6.23770474337589        4.66022572253182       -0.36239982821570
H           -0.17197233714847        6.89210413467841        2.24063594499575
H           -0.82723642184178        7.57630401413948        0.75293763183751
H            0.46406009485065        8.41527878734228        1.61914528545218
H            2.85792969616262        5.46862959347576       -2.97245961881236
H            4.32752444591938        5.78027359711255       -2.06275992938012
H            3.75955581366694        7.54115119017991       -3.90693040352921
H            4.12664578940352        8.17048339433146       -2.31845193102790
H            1.30250976036117        7.73075625938399       -3.41634163090706
H            2.08978959170179        9.28447232664085       -3.28181585311326
H            0.43040555503691        8.66572053833559       -1.36389282273196
H            2.00819909293853        9.22292117746536       -0.84406387134251
H            1.30474542763449        2.74845764936708        0.08219230733022
