28
 energy: -5.774169589343 gnorm: 0.000735699015 xtb: 6.5.0 (97a52f5)
C            1.05995199056354        0.17547783724572        0.47547265320736
O            2.43597119061269        0.00146530195727        0.23573988347496
C            3.16340554590239        1.19016328052575        0.04773083180009
C            4.53163460073209        1.07773009246689       -0.20021506972540
C            5.31353950813182        2.18887460186003       -0.39366871688084
C            4.76893040325062        3.47260053146280       -0.34973021362401
O            5.56650855325432        4.58556158097543       -0.54429053999783
C            3.38408977509235        3.60354260563494       -0.09993894008071
C            2.71593997074238        4.90013838413221       -0.03209192056138
N            3.29487757186508        6.07264943222406       -0.21585343026436
C            2.32461576540506        7.00162801655874       -0.06715095368043
N            2.44310376873480        8.34422603335392       -0.15797952578902
C            1.32826764233755        9.00376038738211        0.03682419243008
C            0.08107163410464        8.44219123963782        0.32307700223618
C           -0.05201111652048        7.09145140697601        0.42130185888028
C            1.10279303801690        6.33741354495613        0.22166979661523
O            1.36904414057962        4.99821882251784        0.23944039530909
C            2.61518379180897        2.46595788801188        0.09202972981543
H            0.60728117808540       -0.81005895813684        0.59493959497567
H            0.59706344673598        0.67880593123662       -0.37484396773245
H            0.91462759047667        0.74851626959195        1.39259116851898
H            4.96118366239495        0.09200000698854       -0.23593514637880
H            6.36569110535577        2.07422502423566       -0.58313185310314
H            6.49252267065689        4.32582011870311       -0.70821341632160
H            1.40317142138344       10.07891891711125       -0.03588786341280
H           -0.77596561028967        9.07991603631952        0.46595386590864
H           -0.98857646875823        6.61102502850999        0.64092427036055
H            1.56635322934481        2.59688063756191        0.28040631401989
