19
 energy: -4.883608527657 gnorm: 0.000520351746 xtb: 6.5.0 (97a52f5)
C            0.98322116624354        0.14879670459639       -0.03604809011900
O            2.38924559779021        0.03433529326604       -0.02601986732673
C            3.08200550489160        1.26423803381249       -0.04001914143924
C            4.47648578028560        1.22989827419620       -0.05991305258032
C            5.21214807010628        2.38851577688387       -0.07705030271641
C            4.59834935712362        3.64604849120061       -0.07450327541628
O            5.38811244144236        4.78572665577331       -0.09402329391755
C            3.18792733922539        3.69833371822739       -0.05230192170382
C            2.40507473065035        4.98213889816302       -0.04535919669382
O            3.01109168035940        6.06420925158098       -0.06246287076857
O            1.16677309326335        4.86578821175435       -0.02238157799802
C            2.46923710982673        2.51210247415129       -0.03579824632917
H            0.54793218708578       -0.85087611073368       -0.04018704198577
H            0.65631484189107        0.67611684969686       -0.93278319891841
H            0.64343378115621        0.67435938548357        0.85693896869811
H            4.96365567362899        0.27023291240686       -0.06227518241227
H            6.28677719728208        2.33703553285657       -0.09317768944568
H            6.33687283287258        4.53850940578063       -0.11408980868441
H            1.39792161487487        2.57672024090322       -0.01837521024264
