23
 energy: -4.162532174670 gnorm: 0.000730488442 xtb: 6.5.0 (97a52f5)
C            1.55501219643755        0.14762249694393        0.60307616546707
O            2.76334070686887       -0.19334894922195       -0.03298247715887
C            3.08932185336577        0.58852524047934       -1.15503093962608
C            4.31956630271349        0.35941325294829       -1.76830709386668
C            4.71226778566988        1.08402050956916       -2.86273728625670
C            3.89889346872656        2.07982276704591       -3.41296546739078
O            4.28829380796303        2.83067461777827       -4.53031851795669
C            5.56369973497253        2.53969383366168       -5.05166527455419
C            2.64477929879618        2.31887720198997       -2.80217045596595
C            1.67401876086025        3.34218507521146       -3.27127238903762
O            0.62991238300801        3.46820552350087       -2.65540040531029
O            1.98220863203777        4.09443194229184       -4.35976091489102
C            2.27417110780179        1.57237718537990       -1.69506099921856
H            1.44041791744254       -0.49240525539612        1.47948098092395
H            0.71919567643336       -0.02543250788189       -0.07662836532562
H            1.58824607450924        1.19009401554904        0.92399735644500
H            4.95662830156496       -0.40378964379226       -1.35651403695934
H            5.67037759575455        0.87654578199072       -3.30255766385289
H            5.74040131882531        3.19642823133838       -5.90475043199335
H            5.59659631302962        1.50298270599652       -5.39020193273114
H            6.32425523795848        2.73102528482747       -4.29268442352989
H            2.86078090801128        3.83135818503473       -4.68607436715787
H            1.31624461724795        1.77802250475269       -1.25463106005076
