25
 energy: -4.471847814469 gnorm: 0.000407481706 xtb: 6.5.0 (97a52f5)
C            1.19626969097533       -0.10044731168457       -0.13000430367130
O            2.33530722054847        0.61930661702686        0.27985154793621
C            2.93595152084430        0.15512465571762        1.46480108663501
C            4.01667682382061        0.87763063387669        1.97230304139470
C            4.64977817549704        0.49341440341862        3.12515016071194
C            4.24254337427530       -0.63744188719764        3.83994907824232
O            4.85637427670206       -1.04803508102376        5.02862259132429
C            5.89973669411999       -0.22115857320512        5.49006335509123
C            3.15588968063400       -1.38708911888029        3.33044411449589
C            2.63203041258502       -2.60020576533245        3.98061969614100
C            3.29841628361807       -3.15044931811398        5.19680574682813
O            1.65208487476837       -3.15592956461675        3.53218872775113
C            2.52979154014719       -0.97170138777080        2.16411318929819
H            0.79761562555371        0.36967052071247       -1.03005642853989
H            0.43718739167479       -0.06979622776159        0.65306564986860
H            1.47148577821999       -1.13062186059799       -0.36047115101496
H            4.34051954649616        1.75056026249628        1.43336936504761
H            5.47626880898181        1.07900735066610        3.48342981882614
H            6.70921330770670       -0.20216039100080        4.75898366585162
H            6.27805843686328       -0.63579964965879        6.42544311666086
H            5.52077343862991        0.78472197520506        5.67704038646541
H            4.36689827848118       -3.28101665492479        5.02729029682598
H            2.87099468086072       -4.11744427043192        5.45834029230580
H            3.17032894599274       -2.47702488241111        6.04367156319391
H            1.70373519200281       -1.55740447450888        1.80787539233083
