65
 energy: -10.569625450857 gnorm: 0.000387913696 xtb: 6.5.0 (97a52f5)
C            1.34090304211986       -0.58665870646577       -0.95819321575371
O            2.53515281102425        0.01767770277324       -0.51943253893137
C            3.29830838107570       -0.75104926652662        0.37459766007543
C            4.49747917511976       -0.20300555048584        0.83425381450970
C            5.32475167960393       -0.92366579159559        1.65439252575313
C            4.99343679816416       -2.21138752744229        2.08198610348041
O            5.99975371443760       -2.93019685258645        2.77463864670580
C            6.70092324135891       -3.84447817293137        1.95415938695223
C            3.71150483357664       -2.75254927350478        1.73896901911007
C            3.23881596015448       -4.04153973964332        2.21919375063531
C            2.00526410520026       -4.63486232273114        1.66918536068874
C            0.80671426230316       -3.89756995939554        1.55712998278261
C           -0.32234222506381       -4.44477086934161        1.01030682736073
C           -0.34198145036033       -5.77139740679412        0.56093591504220
N           -1.48949543583307       -6.32483920249846       -0.02774036767056
C           -2.68085860083717       -5.51684849084438       -0.28948892460609
C           -1.53477986370200       -7.72608729246736       -0.44563724153693
C            0.82127715732725       -6.53285500854060        0.73758379091192
C            1.94802014864816       -5.99111967572646        1.29108579004643
Si           3.39214006735524       -7.05667507558506        1.73163147306345
C            2.81829972114327       -8.77616318112859        2.21928681086459
C            4.60867980036025       -7.10938993191260        0.30654789371688
C            4.12248454686789       -6.18173849102743        3.18852873741205
C            4.77132931529456       -6.87546241709031        4.17167559808421
C            5.27078324496833       -6.23040514246836        5.31144723121209
N            5.95066014884952       -6.94527096240664        6.30945469375388
C            6.12221000321600       -8.39601702793044        6.22837154976318
C            6.51315321093212       -6.27506748913227        7.48195573776646
C            5.06698129578288       -4.84851810312087        5.41697160557132
C            4.42117213754399       -4.15105397272310        4.43273585592916
C            3.94873489094433       -4.78644499929888        3.26645250810268
C            2.94292006089449       -2.01419685239107        0.82671628889294
H            0.83332151546356        0.10384404969172       -1.63306699084967
H            0.69145391732040       -0.78887151107264       -0.10548977664799
H            1.56700888633443       -1.50733357569433       -1.49795945877765
H            4.77325714955064        0.78076013520757        0.49865084059475
H            6.27536630866774       -0.52098219152401        1.95620719336831
H            7.17292253294143       -3.30723360238931        1.13086115464640
H            6.00828869422321       -4.58755051899188        1.55995933222070
H            7.46519874009779       -4.34047533480098        2.55326461097397
H            0.77248378886864       -2.89894406481049        1.95732359047089
H           -1.21623377746392       -3.85212524895544        0.93680509397974
H           -2.41500765532165       -4.64360129790440       -0.88125548689498
H           -3.12368811385304       -5.19289072397685        0.64974716831213
H           -3.42603508598164       -6.08470486118258       -0.84148636874420
H           -1.30288481922724       -8.37316196118701        0.39742106429808
H           -0.81299422108237       -7.89945078497465       -1.24086877509715
H           -2.52226425613641       -7.99345543458534       -0.81420723572174
H            0.83248303576760       -7.56468083714856        0.43999958502127
H            2.33730931403926       -9.26770817080763        1.37923984322194
H            2.10960129464355       -8.70887415732598        3.03934974169869
H            3.66312573274394       -9.38081554263260        2.53451637224917
H            4.17765726617875       -7.65134727825171       -0.52983834345498
H            5.52339885130943       -7.60702794384076        0.61431126918507
H            4.84723355860288       -6.10124800688109       -0.01798094651785
H            4.90080711481864       -7.93573327544574        4.06139057196442
H            6.71066548738839       -8.65190635668492        5.34997506639112
H            5.15090725346663       -8.88158990839797        6.16380333527126
H            6.63544989215819       -8.78021228088128        7.10664509224296
H            5.71759995265929       -5.81514903779550        8.06404069169121
H            7.21818572890890       -5.50829787468456        7.16827641146358
H            7.04044115491433       -6.97914794429855        8.12116767013687
H            5.42873179249752       -4.32735078509886        6.28475328675290
H            4.28591186074402       -3.08780614936144        4.52728557265751
H            2.05315092630159       -2.45268047037265        0.42654655423362
