22
 energy: -3.999771239218 gnorm: 0.000692958876 xtb: 6.5.0 (97a52f5)
C            1.17050144375858        0.21970301348941       -0.06539043820730
O            2.38081027617850        0.43726768565876        0.61940302939539
C            2.97378940019223       -0.71745570186789        1.16126372112779
C            4.13132676027347       -0.55059982968565        1.92611888171543
C            4.77383245244163       -1.62018491185243        2.49413618342154
C            4.29370058776230       -2.92140971743282        2.32760244455803
O            4.88890839935748       -4.06276764089488        2.87666647622558
C            5.99286145108695       -3.81753593343010        3.71593426265722
C            3.12870199990711       -3.10096948051996        1.55202270399789
C            2.58995473807557       -4.43046281333500        1.33740437744999
O            1.60735278185777       -4.69478171459354        0.69502498791678
C            2.49244775153283       -2.00713110543458        0.98704982991996
H            0.78817066566368        1.18583068992820       -0.39834532219972
H            0.44330689397666       -0.23894028164369        0.60631905713613
H            1.34759768143765       -0.41268267635021       -0.93675399384755
H            4.50994489794912        0.44787748952101        2.05738978610167
H            5.66389065395266       -1.45035916588149        3.07176481179825
H            6.80131645010638       -3.36351782366237        3.14117981000427
H            6.33418655815806       -4.77262399757759        4.11888917428858
H            5.69154998489114       -3.17061690206975        4.54154319343798
H            3.11459993783498       -5.26119028530158        1.79130744738742
H            1.61121823360414       -2.18600889706353        0.40037957571399
