20
 energy: -3.560802352760 gnorm: 0.000404767617 xtb: 6.5.0 (97a52f5)
C            1.03226430717159       -0.22096367016600        0.02955185393237
O            2.34699483426895        0.24701284051930        0.22102282512900
C            3.08558452020878       -0.44887858888718        1.19882546895473
C            4.35223440892144        0.03698873575177        1.51930322165258
C            5.13286128501834       -0.58300729258314        2.46448939041576
C            4.68637913236673       -1.72076956730901        3.13491236099339
O            5.54777395410848       -2.29439985805064        4.09104305505302
C            5.04333447710181       -3.44513080748296        4.72738707090810
C            3.42075752185039       -2.20996672400574        2.81265905630017
C            2.63890684988261       -1.58883753439704        1.86651672009778
H            0.53697160512347        0.42374003301682       -0.69746479677481
H            0.48183502188776       -0.18091121479822        0.97056452181744
H            1.05311000406434       -1.24055470811647       -0.35780394813588
H            4.70548277942599        0.91483716020918        1.00797774997637
H            6.10814750588112       -0.19920824491020        2.70615435703729
H            5.78920429455903       -3.80391571809740        5.43796393337470
H            4.85406454618944       -4.22564654132913        3.98916478992573
H            4.12835118557703       -3.19988901526314        5.26848654848205
H            3.04780294691887       -3.08680932131988        3.30966448931612
H            1.66963881947386       -1.99265996278084        1.63764133154405
