73
 energy: -14.086598894866 gnorm: 0.000659379378 xtb: 6.5.0 (97a52f5)
C            0.64015485444952       -0.60532425467455       -0.51899342957435
O            1.85446587960498       -0.26428137726514        0.10988567819323
C            2.59623174675374       -1.36078426567113        0.59409532813909
C            3.80238502657178       -1.09136274178774        1.24219545390262
C            4.58521551623192       -2.10372948608117        1.74288835904419
C            4.19587139003375       -3.43409874950541        1.61303483963638
O            5.00472443372341       -4.44387364517418        2.11495942515293
B            4.95305460005739       -5.83831187959466        1.59123097520858
O            6.07763557814696       -6.63795952524742        2.15917563339284
C            6.10077339451289       -8.02258075584014        2.05185881730168
C            6.70714503756679       -8.79037924668039        3.04248850262578
C            6.71318148780245      -10.16228532624502        2.96148790033269
C            6.11926288469700      -10.82770066306648        1.88806770508012
O            6.15993569673551      -12.23663273004743        1.88658042108271
C            5.51003622067794      -12.84328109377129        0.79292647135586
C            5.52672497118197      -10.05444863193924        0.88954242538698
C            5.52483801078427       -8.68453290333137        0.97377295175529
N            3.62355317556511       -6.50278293813691        1.97815613307826
C            3.22311375499055       -6.70507847791715        3.24967212399737
C            3.94579911297110       -6.27664171034391        4.46074471905652
C            2.00742286056459       -7.39742333779794        3.17422467391123
C            1.68197069296213       -7.61149956547708        1.83371214378525
C            0.46881407747173       -8.30516029511884        1.33857178684976
C            2.71570548968295       -7.03365580702985        1.05087967904142
C            2.88389553442890       -6.94283172945906       -0.34528804387915
C            1.89457712321893       -7.51623283956365       -1.28892153797267
C            0.76784901774042       -6.78659956838568       -1.67826958041402
C           -0.15162949906177       -7.32922444484995       -2.55457529426149
C            0.03576621889392       -8.60240488071833       -3.05497829108445
I           -1.35901713015272       -9.41838708173421       -4.37704517022244
C            1.14314935109325       -9.33812759504658       -2.68245763802698
C            2.06737778558769       -8.80295966885338       -1.80684753526199
C            4.05181253189562       -6.29660529379435       -0.79738901617084
C            4.52063434700562       -6.01868281705344       -2.10826035714324
C            3.84306322569435       -6.34436182633267       -3.38622403018649
C            5.75919417171260       -5.38734886106920       -1.98114591867860
C            6.07594180502297       -5.26139320159654       -0.62209774613969
C            7.27720141721425       -4.64988330280347       -0.02579583804875
N            5.04731167922293       -5.80533673851650        0.05890975868305
C            2.99067379254040       -3.70274577288583        0.97480380960417
C            2.20600079538496       -2.69465364443016        0.47202945101967
H            0.14790290310748        0.31054460039429       -0.84874532970237
H           -0.01286513563090       -1.12180954644713        0.18588472818245
H            0.83433971245109       -1.23377608775474       -1.38924643558704
H            4.10855779231493       -0.06508579559513        1.34163496618008
H            5.51432222565490       -1.88687023467715        2.23911351250205
H            7.16144682800230       -8.28642005259684        3.87680637385819
H            7.17563438068608      -10.75231888470097        3.73277909757470
H            5.58492716673838      -13.92636446272384        0.89855627409396
H            5.99269094844400      -12.54609319417566       -0.13911679323007
H            4.45593493158282      -12.56227283337253        0.78250112107662
H            5.06547595913308      -10.53203795748377        0.04460070782169
H            5.07453915921715       -8.09276844531403        0.20305085395490
H            4.87458047830892       -5.77530897819005        4.18698346713908
H            4.19415085687130       -7.13183530268268        5.08941713493814
H            3.34525781282035       -5.58098631767526        5.04702409662484
H            1.42304829188159       -7.72038285594483        4.01832119335202
H           -0.09878750069634       -8.73878418027567        2.16240741736434
H            0.73355676417578       -9.11233337086408        0.65524677403405
H           -0.18611866379634       -7.61312444500456        0.80876808263153
H            0.62775726591348       -5.79473337391432       -1.28519600099737
H           -1.02207938810999       -6.76708869375475       -2.85545319364404
H            1.27532255639297      -10.33179938058995       -3.08166183324400
H            2.93118763735191       -9.37211095511931       -1.51059952941098
H            2.83025030195713       -5.94129426086014       -3.40309165897917
H            3.78161590117776       -7.42335348457934       -3.52942289121369
H            4.38367472495511       -5.92410710663945       -4.23477130624001
H            6.37582337543564       -5.05090634079167       -2.79656226430663
H            8.18339722633647       -5.13169896436613       -0.39318381386604
H            7.33159878689965       -3.58732632673223       -0.26290262970563
H            7.25271751139242       -4.75404360651123        1.05932661409581
H            2.68315756370733       -4.72507946967902        0.88895142483499
H            1.28174356414491       -2.93980101652823       -0.01838589969132
