65
 energy: -12.759857321005 gnorm: 0.000529371001 xtb: 6.5.0 (97a52f5)
C            1.59145036830908       -3.36884908578095        1.51523309674957
O            1.20163952834744       -4.08209623923318        0.36414110884228
C            1.93599746452433       -3.77924495445398       -0.79284369014249
C            1.62670113587059       -4.48488671698951       -1.95868647881769
C            2.29975993611565       -4.25235538740220       -3.13141683494635
C            3.31001341133852       -3.29504815103369       -3.19391780260172
O            4.00078970494133       -3.06855023255916       -4.40890939648147
C            4.11537221637755       -1.76703095341483       -4.87763549062360
C            3.30411144892690       -0.72873223315129       -4.43429599432228
C            3.44151823667370        0.55272861095634       -4.92734072653418
C            4.39306927835969        0.85780901600003       -5.88181222421851
C            5.24153512346409       -0.16502794458843       -6.36767730751991
C            6.23118891633876        0.11221698392274       -7.34108410878660
C            7.04014531224789       -0.90551677310673       -7.79303673474091
C            6.89978943785278       -2.20021701802466       -7.30675598199815
C            5.94989346513975       -2.48558844547493       -6.36343683247782
C            5.10382014891628       -1.48219023635741       -5.87428065445025
C            6.39165509313540        1.47623718250929       -7.85252954443411
O            7.25033339643699        1.73544805979051       -8.67811080591899
N            5.52285322915702        2.47550745409743       -7.35883904087532
C            5.63326137563221        3.81157072777773       -7.83776637422374
C            4.88183077958554        4.22410665152500       -8.95499004090723
C            4.07586206408386        3.27002579171341       -9.82292996621402
C            4.98678153668811        2.48889351489146      -10.77076086950238
C            3.15368577425185        2.33899279815969       -9.03506721108920
C            4.94543144906997        5.54819146690194       -9.35196397005976
C            5.72773673577769        6.45850313179856       -8.67972802600005
C            6.48250146411335        6.04877912063222       -7.60500621859828
C            6.45614112939837        4.73643413547462       -7.16667201065364
C            7.40529839706801        4.35374906350655       -6.04148245564645
C            6.75563855406858        3.52625746496231       -4.93188915369221
C            8.65894206813207        3.67128497413222       -6.58983605049218
C            4.52411223505838        2.22049084783793       -6.39151617531582
O            3.79023554874242        3.10895863487343       -5.98820335369363
C            3.62671052757966       -2.59155203649135       -2.03270553944930
C            2.95493976166467       -2.82506209137986       -0.85869610827339
H            0.97030117557639       -3.69149996587235        2.35186500595706
H            1.44464175948060       -2.29926073738680        1.35908203992533
H            2.63555965793289       -3.58198274533603        1.74886621189207
H            0.84475846044272       -5.22192114837744       -1.91454891045455
H            2.05726529411258       -4.80127176851039       -4.02397361701729
H            2.54446945371818       -0.94144878451938       -3.70421466741525
H            2.80131443672911        1.34195520740095       -4.57254643872267
H            7.78919359451283       -0.67970490320146       -8.53213764493923
H            7.54418628044339       -2.98178301710469       -7.67404936079362
H            5.83714783036842       -3.48480259350882       -5.97997485263994
H            3.42151270974256        3.90664245693000      -10.44533522424028
H            5.67335438008614        1.85890497270701      -10.20814996188524
H            5.59118708989588        3.15914637631625      -11.38272100539143
H            4.41484080290117        1.84327586922830      -11.43787458630920
H            3.73052658238372        1.57170794230877       -8.52267163361700
H            2.44729422307714        1.82418138085760       -9.68756920725972
H            2.58631029465800        2.88767452878782       -8.28256924037623
H            4.38212638794304        5.86711129714801      -10.21235687950175
H            5.76450687288773        7.48478182724639       -9.00654534851250
H            7.11720972943302        6.75854895845023       -7.10237698475027
H            7.72372501915489        5.30500013064768       -5.57819528036139
H            6.57290070490103        2.50826863798077       -5.27026028561441
H            5.79936665605194        3.95341125851738       -4.62801192910803
H            7.39560400357580        3.45890299042072       -4.05112232450318
H            8.40268935943664        2.72626305926425       -7.06548401818801
H            9.38047551570238        3.46027122970071       -5.79997277609952
H            9.14967557616644        4.28918863111599       -7.34240145463863
H            4.41878530206307       -1.86483173275724       -2.07250656072996
H            3.22027459305706       -2.26618649055915        0.01980590348126
