86
 energy: -17.309707719912 gnorm: 0.000553627290 xtb: 6.5.0 (97a52f5)
C            2.54510949903184       -0.36982601177708       -1.36973855040118
O            3.76305268798342        0.32146799934004       -1.21082950645925
C            4.07491771900108        0.66430368812424        0.11121925874960
C            5.26001379909983        1.36579472153424        0.33905525118821
C            5.63498599069720        1.73644126185843        1.60852930707304
C            4.84781155139253        1.42102295837438        2.70626112163168
C            5.28062487668831        1.85834927550173        4.09110441313819
C            5.04921753816476        0.78534889244007        5.19069976599222
C            3.72601689003940        0.84632218893240        6.03055261977056
O            4.06892263676049        0.42122485487294        7.37612161645121
C            2.69667050140442       -0.14379352062862        5.48274519982006
C            2.94779837049238       -1.49269016098688        5.62918572431017
C            2.06288607292954       -2.40954049357701        5.11933503696683
C            0.94813132306532       -1.93219009813394        4.47879929179086
C            0.77509949864283       -0.57206035570434        4.38748198771214
N            1.61526731218417        0.32694576472514        4.86984816760337
C            3.11337908665679        2.28079419575552        6.17319064648862
C            3.32231169982666        3.34439424265665        5.04387350323576
O            3.13260451457467        4.64141416674742        5.65305173275230
C            2.29539361275286        3.24656709201163        3.90699083074201
C            0.95540140330939        3.08075528961124        4.20126669580563
C            0.02978213832507        3.06395009390822        3.18808564568184
C            0.47993178320169        3.24739948131364        1.90668010878102
C            1.82201862837413        3.46203889041408        1.71038602154434
N            2.72816707003037        3.48952136635981        2.67240905103100
C            4.78782562242424        3.28525478685218        4.47795810296729
C            5.79468455347295        4.02822707076666        5.34080231675225
O            6.37753102666772        4.98505631572492        4.87961702252398
C            6.04209613046675        3.56089471109240        6.73444145903027
C            5.26251589348063        4.03493542970151        7.78780705291827
C            5.39127076027766        3.50671345094228        9.04640195540478
C            6.31752620915801        2.49699786111852        9.30456040071694
N            6.37754848130360        1.87921905417096       10.59073680890617
C            5.18898241263009        1.77371584037473       11.39392446047090
C            5.23262275939130        2.03883484596248       12.75998369075289
C            4.09668190002477        1.93788054741738       13.53100840481224
C            2.89791739422173        1.56874400035774       12.95292354469731
C            2.83961481482275        1.29737550659504       11.60007503923477
C            3.97380750822135        1.39662872332321       10.82697721189481
C            7.61086404936955        1.33801425520085       11.08822282257452
C            7.61869980799981        0.15736758921095       11.82619504370434
C            8.79853268804307       -0.36037265829294       12.31085655998313
C            9.99177041505349        0.29158673617359       12.06896859841022
C           10.00038347435302        1.46562118547187       11.34162390262471
C            8.82153937527739        1.98565397192151       10.85672320986015
C            7.14973272243407        2.07877067488369        8.26647127734997
C            7.02293880342678        2.60872837152414        7.00750700038867
C            3.66726107505350        0.73319265632477        2.48362807724009
C            3.28376931298626        0.35722858837266        1.21896517813767
H            2.40387715269888       -0.58864773504589       -2.42893601388572
H            1.71751270006940        0.25085727975279       -1.02412792437708
H            2.57499593880495       -1.30952732129209       -0.81681143844289
H            5.87527740430984        1.61366960426867       -0.50769161051525
H            6.54901058627725        2.28507665893932        1.75880503955022
H            6.37839224181729        1.96281711599217        4.01551861852289
H            5.88593582645448        0.77798346108493        5.89253634990349
H            5.09017212727682       -0.19832263249307        4.71356595482024
H            4.76495854226703        1.01463951064737        7.73057968743173
H            3.83262690377328       -1.81152651934671        6.15274823313590
H            2.23852304163804       -3.46825353182546        5.21910870507178
H            0.22245767371192       -2.60913282749438        4.05882182469208
H           -0.09877678871303       -0.18576815913685        3.88509399662086
H            3.47709645687125        2.71056380630854        7.10533044487639
H            2.04444626621322        2.15611951264691        6.34598527226613
H            3.27108337040278        5.33226697930218        4.97803706797861
H            0.63190979003948        2.98302442889665        5.22189281400815
H           -1.01788872711562        2.91661958819828        3.39427029133593
H           -0.20530095502858        3.23869188470355        1.07502239977670
H            2.18736736221856        3.62310855484077        0.70733366969096
H            4.74563722562197        3.85325096599533        3.53780609422291
H            4.52385742895364        4.79104873029299        7.58514996589906
H            4.76726745841124        3.85771943283182        9.84943677498644
H            6.16877825596375        2.33146900323662       13.20223914921364
H            4.14286033327950        2.14744859078601       14.58704395559569
H            2.00920898510711        1.48981831859430       13.55726024316020
H            1.90577560397931        1.00422077761249       11.14912562198353
H            3.93607733206350        1.16454725721831        9.77730377757339
H            6.68676829411564       -0.34940339576145       12.00576439183047
H            8.79105932174319       -1.27563528786872       12.87959913404918
H           10.91503775006005       -0.11417163481118       12.44874091360868
H           10.93066647232002        1.97664124698378       11.15542670573340
H            8.82075180381596        2.90731033420972       10.30163502011391
H            7.87673643790372        1.30944936241290        8.45908741511853
H            7.66467181913801        2.27639747341078        6.20980335691194
H            3.02302510923247        0.52377455873804        3.31570854572442
H            2.35601005918724       -0.16795069170642        1.08424146886230
