34
 energy: -6.038218911036 gnorm: 0.000459050015 xtb: 6.5.0 (97a52f5)
C            1.18926154251100       -0.09896240139148       -0.39351309324999
O            2.32369589414143        0.18194451840712        0.39817417019675
C            2.86593377525667       -0.92073943388052        1.05778956925321
C            2.36953983320696       -2.20899236818452        0.97030906985445
C            2.96777346734557       -3.26367503547175        1.65508644452359
C            4.06770010400782       -3.07504252647188        2.44263367842897
Si           4.78468099854257       -4.57347471193769        3.29523547165234
C            6.56370879312778       -4.84607936462600        2.76860736113340
C            4.66746652132473       -4.37892035887683        5.15590642365423
C            3.83092124144427       -6.11919373005961        2.83386973589952
C            4.61868983891841       -1.77666428912240        2.57788128095582
C            5.74871831869782       -1.50362739635184        3.38404287588498
C            6.25140278696701       -0.24102920173244        3.48999280852596
C            5.65422482380515        0.81685321733239        2.79915215388429
C            4.56172435804680        0.59221443648246        2.01409149636879
C            4.01735141656903       -0.69760696832342        1.88272351963007
H            0.84830862134826        0.82601315219976       -0.86057288181992
H            0.38488467722845       -0.49303392750863        0.22926916909223
H            1.44645074058221       -0.81215026156565       -1.17803702683152
H            1.50548101986126       -2.40719918467852        0.36305299763436
H            2.55315771584988       -4.25280537330945        1.56101661986277
H            7.22263870064272       -4.08127642214497        3.16751362996062
H            6.62837061646507       -4.83049093709286        1.68432001403225
H            6.90541582181373       -5.81408343267555        3.12396864260253
H            5.25416839770220       -3.53520999666442        5.50584651247888
H            5.03018960964368       -5.27964907891801        5.64296697741692
H            3.63061920721332       -4.22210867982269        5.43975717681477
H            3.87332600901914       -6.28097392779669        1.76042927431054
H            2.79223006711674       -6.02987580934593        3.13921409020822
H            4.26580315018569       -6.98087812311370        3.33237440992013
H            6.21260682586751       -2.30901152702094        3.92240496121888
H            7.11336732534732       -0.05461408673302        4.10978691824227
H            6.05923400826504        1.81161540748092        2.88945524802297
H            4.09557377193205        1.40210782292074        1.48005030024065
