36
 energy: -7.613276923805 gnorm: 0.000612614759 xtb: 6.5.0 (97a52f5)
C            0.47658680187350        0.28983124646540        0.29088315850857
O            1.51324502870613        1.18720459005139       -0.02741073698016
C            2.50884948725689        1.30873964468122        0.94020857822036
C            3.54341593585128        2.22563865249460        0.68554369227214
C            4.55696898216974        2.40963315337317        1.57993927392262
C            4.60375942533151        1.69262178835956        2.77893784488189
C            5.65417909044147        1.85314847767913        3.74496458620591
C            6.75114803263979        2.78680788243406        3.54707885886359
N            7.75338248229370        2.92738640698785        4.39426676511090
C            8.53287915368537        3.86910733516124        3.84859812620317
C            9.78303627830040        4.34524504552271        4.42892843993352
C           10.25260855001186        3.82302218433284        5.62978571791763
C           11.43741960281871        4.26769320021698        6.17295031788384
C           12.17217598797052        5.24371032259728        5.52324353484803
C           11.71531066442342        5.76886066384970        4.33450583415536
Br          12.70170041792180        7.09772406849474        3.44065489581032
C           10.53480256459057        5.32894202324460        3.78795416471681
N            8.02964549153613        4.31003243569778        2.68684266415743
O            6.90332737448943        3.63769896173049        2.47990984028807
C            5.61634683596172        1.10422556366983        4.87296595918835
C            4.56326357703370        0.16171290516104        5.13695266695921
O            4.60354561837062       -0.48009953136964        6.17963116379369
O            3.54908041646593        0.01028420795246        4.21687527568585
C            3.57713426140708        0.76501431875413        3.05425133738683
C            2.55065380940112        0.59328514632769        2.12917450168483
H           -0.24154439047015        0.29713184277233       -0.53080271474977
H           -0.02370793211010        0.61380554898979        1.20509383940172
H            0.88147092738962       -0.71746466188231        0.40171953880347
H            3.51349775681521        2.78018643213418       -0.23585315894800
H            5.33908586985491        3.11685542602779        1.36851083995091
H            9.67377491740729        3.06374440885308        6.12643768030347
H           11.79317344717002        3.85573232502668        7.10303493910758
H           13.10207384350693        5.60116838476756        5.93546836633392
H           10.18825396612572        5.74707332260477        2.85830413230107
H            6.39458085011657        1.20743937999099        5.60529177645103
H            1.78465487324689       -0.11943310315486        2.36554829941440
