53
 energy: -8.741753280817 gnorm: 0.000776474576 xtb: 6.5.0 (97a52f5)
C            1.63674469857078        0.81329849313452        0.15492525389933
C            3.03046121080869        0.29808299985280        0.00940992813256
O            3.87089442611560        0.60843537705229        0.82278352398303
O            3.27512970941103       -0.49799492450250       -1.06741433533676
C            4.61225015087413       -0.91313139827574       -1.05109685353376
C            4.93125558740583       -1.85132134975818       -2.21242319852092
O            4.94072299572592       -1.14970585320937       -3.47034279124040
C            4.02450389649886       -1.75864812023035       -4.39183771017649
N            2.85351797554885       -0.91373271221676       -4.65479115129058
C            2.20243340622293       -0.09629372024537       -3.75582699796965
N            1.24128738135434        0.58032917197213       -4.32963161769725
C            1.24213271703528        0.21882785803378       -5.63914393200300
C            2.25299876999521       -0.72115940789338       -5.87868005792055
N            2.55157128141128       -1.27414104597951       -7.08520379528331
C            1.78749315009651       -0.85736515102648       -8.04433312925440
N            0.75026050939365        0.06393523536396       -7.94205520996432
C           -0.02590393058645        0.39606467223369       -9.14064495074275
C           -1.04400748488304        1.44962788080430       -8.88798284522348
C           -1.79837684802212        1.93901861492929       -9.89889669631548
N           -2.73748830844282        2.92024052798402       -9.64581354003579
C           -3.54797286898830        3.43714815597566      -10.75131135677241
C           -2.91159889925538        3.36643455275946       -8.33586683399079
C           -3.92551288736837        4.40772167753931       -8.04332418242254
N           -2.20068850269016        2.92231539895579       -7.33781255061252
C           -1.24989571347249        1.96636622969525       -7.58042011719802
N           -0.52552656617145        1.55501351933608       -6.51874967770338
C            0.42725805039482        0.65785506933649       -6.72064315688686
C            3.63776490325711       -3.14612875872099       -3.82940502875761
O            4.39151998791082       -4.18049666106402       -4.41715053540730
C            3.92245740642148       -3.02831279078037       -2.31265634140305
O            4.48886339694987       -4.21269689550606       -1.78977728170823
H            1.33562202388394        0.79206411478048        1.20147757477688
H            0.93960976174777        0.20310226917744       -0.41757456889202
H            1.56990851964292        1.84143374884077       -0.19782176695512
H            4.78330852824546       -1.40396737021060       -0.08322461664524
H            5.23322608068372       -0.00923593026055       -1.09930654176167
H            5.94395803409672       -2.26986628086224       -2.10062903994142
H            4.56869177510971       -1.87974520457724       -5.33802752551165
H            2.45768972072243       -0.02256076957065       -2.70898760196480
H            1.97883906182746       -1.27045874598112       -9.02156194616397
H           -0.51365317930823       -0.51604432646743       -9.49767124360009
H            0.66810577640382        0.72732462099493       -9.91893436651894
H           -1.67727432587232        1.57236848297392      -10.90228976418055
H           -3.11258382409632        3.14995576874956      -11.70603267062095
H           -3.59067379922124        4.52321656025049      -10.71379926980387
H           -4.55533243450071        3.03037088096288      -10.69221134773635
H           -4.89434728405689        4.14783634715000       -8.46987415449142
H           -3.61379668793161        5.37524454877382       -8.43755548898362
H           -4.05342236055207        4.51212047035034       -6.96549115273529
H            2.57888881732283       -3.36394375029046       -4.03680117551652
H            5.31904904223205       -4.12297003971650       -4.13031854704684
H            3.01520901054517       -2.78235408480500       -1.73806537616913
H            3.93303814153408       -4.98269795582627       -1.99608224017094
