46
 energy: -10.152547274133 gnorm: 0.000518073446 xtb: 6.5.0 (97a52f5)
C            1.66292822261108        0.85907206966379       -0.45660166913309
O            2.63609793255278        1.18829985707308        0.50649442197414
C            3.33166243731877        0.10139100688081        1.03783986076424
C            3.08591427536773       -1.24740249318183        0.71327174225597
C            3.77896119943710       -2.24492573934504        1.32732321833640
C            4.77797619684961       -1.96814768445966        2.27962819392931
C            5.38713211131909       -3.02163482465633        3.03970954394148
C            5.06729879659743       -4.36332200564281        2.79491736160723
N            4.79571051347849       -5.47312692729438        2.58634815018079
C            6.22128686823013       -2.70393772736599        4.07043576941177
C            6.59368735429447       -1.36489034840424        4.35229961183638
C            7.34878067518744       -1.06180188834362        5.51023040984591
C            7.68633401244672        0.21668800202650        5.80470099806516
C            7.41041844469278        1.26753563440518        4.89776731636148
C            7.79542773017857        2.59761994806671        5.20408948353236
C            7.66652609761754        3.61403106226874        4.30437146367742
C            8.04527630723310        4.91300195134404        4.66710948385854
N            8.35796290708270        5.99286596860303        4.95842778277130
C            7.23155889582733        3.31850709780142        2.96937936718951
C            7.25833342263449        4.30280171808125        1.96343822046010
C            6.99733231345864        3.99753783504497        0.66298311240911
C            6.71988611118080        2.67052388775025        0.27961172718942
O            6.49699835476359        2.25072065594367       -1.03242120338679
C            6.51884480148674        3.27591737549828       -1.99765130496190
C            6.66861022245814        1.70424060866916        1.27138131613471
C            6.85022354984486        1.99874546837277        2.62765856455820
C            6.77686413386186        0.98206124014780        3.66662046856484
C            6.18267646066024       -0.32179728621222        3.49117225396144
C            5.11928481333753       -0.61985050636483        2.54316602868298
C            4.33291876012821        0.37748016987334        1.95502441123620
H            1.20414508006361        1.78371146175760       -0.81012220331176
H            0.89415239415202        0.22975538473692       -0.00526016242942
H            2.13486722232174        0.35182458964296       -1.29979430022666
H            2.32366905959407       -1.49308885839821       -0.00328578070437
H            3.54922755571962       -3.27288317046863        1.10791842510017
H            6.61296221041646       -3.49399669348544        4.68620075108348
H            7.61049718050281       -1.86008096441982        6.18322873487139
H            8.21565031449937        0.44136233392839        6.71467953115320
H            8.19786602965660        2.81240455192500        6.17807666568875
H            7.52041334832455        5.30970732286343        2.23729538757935
H            7.03423692964377        4.77156193898044       -0.08159335615624
H            7.50431801884190        3.74393592832885       -2.01863013103085
H            5.74404950998832        4.01089092587038       -1.77329679960644
H            6.31555575378484        2.83112446499757       -2.97310370630987
H            6.49781985351442        0.68992404636389        0.96421837518644
H            4.48642561683870        1.40552261112609        2.22305246386343
