56
 energy: -12.706372473994 gnorm: 0.000840794908 xtb: 6.5.0 (97a52f5)
C            0.89805417182203        0.11402596407815       -0.26607021649233
O            2.09300972577915       -0.43532311139096        0.23619961491536
C            2.84140425119119       -1.16993221318521       -0.68239235124283
C            2.43954711997019       -1.45875599559194       -1.99940366741896
C            3.25897695681946       -2.15236345256451       -2.83685416777581
C            4.51665832528192       -2.62318084231551       -2.41656692632148
C            5.44542394243586       -3.21185791139181       -3.34868286154418
C            5.11718412297675       -3.38279173613771       -4.77182680197730
C            4.84750432585562       -2.37890009864439       -5.63929429873744
C            4.90049935057620       -1.03430010286980       -5.26773397657106
N            4.95076433942726        0.08609428641588       -4.96268463966115
C            4.54818580547367       -2.68025221771894       -6.96823184362428
N            4.29777148425483       -2.93959817277613       -8.07331752739673
C            6.69774740836581       -3.55415906369614       -2.90033146203126
C            7.08434160740870       -3.42236073961632       -1.54943044464510
C            8.42954038834381       -3.65572201094205       -1.16874947701625
C            8.82305372643473       -3.50198644816757        0.11644594843683
C            7.87860139419479       -3.23167572732793        1.13744311353185
C            8.30314189521732       -3.08121015953869        2.47268629611331
C            7.43029311715071       -2.92602111397771        3.52231168085083
C            7.90106542276210       -2.64280180972132        4.86668981023210
C            9.17187209075442       -2.64545577853378        5.33299364308498
C           10.30162195518570       -2.95621251879876        4.57867726529718
N           11.22731230347211       -3.21150939542158        3.92371519379103
C            9.38209018725024       -2.31425927750366        6.67206928909942
N            9.54434592747068       -2.03563534119214        7.78912966688308
C            6.01733911214828       -3.08763903691895        3.25571472771577
C            5.07389904664463       -3.20499332872757        4.29705444271311
C            3.76836361572992       -3.49837011234368        4.04802510231066
C            3.31119708516611       -3.72133446863209        2.73803564535179
O            1.96419339371209       -4.04494892861566        2.57308976757665
C            1.50327452841792       -4.01331639028159        1.24370125376477
C            4.22866985370032       -3.60926868434934        1.70667633763043
C            5.56164878905845       -3.23653547991951        1.91940205980915
C            6.50541700454504       -3.12647523497115        0.81568647215901
C            6.13824475033069       -3.02134944417850       -0.57537982185681
C            4.88679415334855       -2.45571227648866       -1.05899157988931
C            4.06288123968468       -1.66341676378263       -0.25222425475874
H            0.43149286498125        0.69291422171952        0.53271866150178
H            0.22075716193212       -0.68560229861828       -0.56959721242766
H            1.12215344692708        0.77622268562962       -1.10409511419839
H            1.48957352149934       -1.10646926287082       -2.35795398385533
H            2.95289636203624       -2.32854588276396       -3.85326837608567
H            5.12821909311536       -4.38705126810977       -5.16652677938972
H            7.41606118712421       -3.92301047697854       -3.61052218273690
H            9.14902425915704       -3.90945023573173       -1.92846818699963
H            9.85745970801513       -3.63068736568010        0.38536633089629
H            9.36087836974150       -3.07057904098653        2.64984373347675
H            7.15315673298104       -2.36161733269460        5.58544885315515
H            5.38957693198400       -3.10385002410317        5.31917623866733
H            3.05930740149220       -3.59110171351430        4.85226235878644
H            0.42097674937311       -4.15286178503861        1.25642501166979
H            1.96178113114532       -4.82252761872595        0.67301843415241
H            1.73457071037719       -3.04158412979216        0.80424691430612
H            3.91792883489328       -3.84868652738747        0.70866406816383
H            4.37608161486616       -1.40674680661181        0.74218021861023
