28
 energy: -5.327665512713 gnorm: 0.000753754350 xtb: 6.5.0 (97a52f5)
C            1.03866203215184       -0.30679616616306        0.24004239132650
O            2.25946889830743        0.37970712554766        0.38169622718066
C            2.99209073802040        0.06284243957308        1.53629562457965
C            2.54082403718924       -0.83442973692023        2.54017746687930
C            3.29432055737414       -1.10880518000717        3.64044558619701
C            4.54742561304616       -0.49094334648543        3.78703064361480
C            5.55429786902814       -0.57454838962596        4.78380510946352
C            5.51779346858634       -1.36290952918952        6.04988809892227
C            4.72017640262371       -2.62633860117731        5.92252325880656
O            5.18534628076383       -3.59951420479681        5.36681573117641
N            3.42964367608250       -2.64942904639374        6.41715248737854
N            2.89285295851319       -3.88471685328123        6.75675620285953
C            6.55473075937142        0.27155064917187        4.37311209625826
O            6.25728967717888        0.87604960625889        3.18099937214929
C            5.01634985136563        0.40808090543188        2.80687929800322
C            4.22360693674137        0.67342503259149        1.68342028870689
H            0.58230507655578       -0.00239564664743       -0.70300217353544
H            0.36884620404361       -0.04303121067565        1.05980245813939
H            1.21947457461019       -1.38250466268740        0.21618725628753
H            1.58282429611307       -1.30845578304403        2.43174075941587
H            2.95728293012867       -1.79185312794623        4.39796606975905
H            5.11149686078330       -0.74327190102171        6.85393227927736
H            6.53773882716665       -1.62466420369377        6.34509495792257
H            3.14947380765201       -1.94141309249333        7.09438033353277
H            3.12418207613852       -4.60066279544175        6.08735294634349
H            1.89011430728589       -3.89221156126229        6.87523625446678
H            7.47366472787728        0.45096744500751        4.91673843905701
H            4.57337655530328        1.35366183537531        0.93115053583223
