30
 energy: -6.030465064521 gnorm: 0.000404360070 xtb: 6.5.0 (97a52f5)
C            1.04480678568309       -0.36079108421453        0.26157889267002
O            2.17003610428332        0.35135930388067       -0.19723467291543
C            2.85750039128777        1.06648609501515        0.78273425412360
C            2.50806155323542        1.08673173032797        2.14598721206715
C            3.22844653918088        1.81571410568380        3.06315490565299
C            4.32196771478326        2.54593806911033        2.63008166859608
C            4.69120055477391        2.54191971164395        1.28013990912508
C            3.96847379125158        1.80980402528145        0.36220202016091
C            5.86782445946899        3.40259479241433        1.12333253187078
C            6.61095024192120        3.73667278683172        0.01107848843650
C            7.70283092546832        4.60582380675368        0.13764043762251
O            8.40721444079590        4.90702552597569       -1.02752907184712
C            9.47156036994707        5.81461761553701       -0.86342879989122
C            8.01659361266626        5.11524371057633        1.41168672854627
C            7.27767534290523        4.78122731152147        2.52250988554462
C            6.20014365459025        3.92400244102268        2.37884302395587
C            5.25009578942437        3.40883210941353        3.37615781619107
O            5.23505178484135        3.64691690807547        4.56662294206449
H            0.58771762713392       -0.86559360278816       -0.59083167719635
H            0.32027898343234        0.33096560987224        0.69399332020604
H            1.35171137775705       -1.10802133766909        0.99487989379061
H            1.65879828875972        0.52116191226255        2.48268442196038
H            2.95924634362971        1.83170533812865        4.10483791371568
H            4.24568269009176        1.80388777610113       -0.67473196959143
H            6.36034395270014        3.34122985626048       -0.95479583242794
H            9.93181756425782        5.98277283762098       -1.83821021744153
H           10.21710386007122        5.39395445478561       -0.18696939294319
H            9.09315318116392        6.76381707514630       -0.48075537439024
H            8.85273888602760        5.78063560791642        1.52358543556228
H            7.51793318846600        5.17194550751176        3.49591530678123
