45
 energy: -7.837943753328 gnorm: 0.000769619881 xtb: 6.5.0 (97a52f5)
C           11.71663942861692       -4.01010686836813       -0.43186000266940
C           10.61052120610779       -4.19443708427051       -1.41752990062500
O           10.51527525338049       -3.44527953295741       -2.36330917244842
O            9.75528255105233       -5.22670427880877       -1.17708275969619
C            8.77107744497955       -5.27229725864589       -2.17170282561031
C            7.71045785305661       -6.32350460956612       -1.86191003056611
O            7.05805019582429       -6.06039042077626       -0.60653999621269
C            5.63872370891838       -6.28661288821055       -0.73095646164285
C            4.84950933369691       -4.97353015137897       -0.52957825649747
C            5.42059161761550       -3.88489939500627       -1.39605339623652
C            4.83374794428955       -3.47797921655785       -2.51825507619754
Br           5.76670006418088       -2.25305379894455       -3.59568276871697
C            3.53293897457801       -3.95941162681537       -2.89861709253101
S            2.86524871283093       -3.52489687605684       -4.33225016576834
N            2.86365005111943       -4.76154010145166       -2.02155774640720
C            3.37629517332582       -5.21263753442669       -0.80007158578292
O            2.69346491212001       -5.79723408070599        0.00563375069978
C            5.39639210253576       -6.93709390640089       -2.12264910781775
O            5.39112834808233       -8.35700985489587       -1.97119192485307
C            4.83394117265739       -9.09317873605233       -2.98740290837729
C            4.24313205528135       -8.43015896039260       -4.19308677501828
O            4.77159366894256      -10.30333710384590       -2.93867927610655
C            6.61166730828306       -6.44987554514880       -2.94929811477194
O            6.98245427016725       -7.37927509700412       -3.97666371938419
C            7.27162414684368       -6.88237722141517       -5.22776920159456
C            7.20785364479068       -5.41715513789199       -5.52969875400532
O            7.56961215561330       -7.61851852324763       -6.14499937672391
H           12.68364062279293       -4.11005042437962       -0.92291570934591
H           11.64886693277768       -4.75611058918987        0.35927929945203
H           11.66216108652652       -3.01986378348446        0.01838390175543
H            9.27569256924886       -5.47941983249288       -3.12384244979079
H            8.31947613675212       -4.27535837641186       -2.23000279699587
H            8.19450561471356       -7.30489209824497       -1.73962557059978
H            5.36962484709053       -7.02167093898704        0.04366865385077
H            4.95108069537187       -4.67006522144514        0.52348662948883
H            6.38624808631300       -3.47882126968082       -1.13653771590824
H            1.90411583704444       -5.01380348528123       -2.22232621129747
H            4.42863706523088       -6.61587286293643       -2.52805390099607
H            4.88421127515736       -7.63445883990350       -4.56557786422169
H            3.25703175159973       -8.02440223351704       -3.97252042284244
H            4.13151031676636       -9.16192167786050       -4.99238738788663
H            6.39195663640674       -5.46907713282306       -3.38223067604804
H            7.80731996541012       -4.83041907709700       -4.83691283653064
H            6.18111915301888       -5.05481686701298       -5.51272659375204
H            7.60075810888742       -5.23704947999522       -6.52948570277074
