26
 energy: -5.436209228760 gnorm: 0.000473134275 xtb: 6.5.0 (97a52f5)
C            1.12972615592702       -0.26200981033773        0.27831176878760
O            2.35141388838591        0.25176458730293       -0.19817245285950
C            2.94351160900654        1.21290418733281        0.62014074919115
C            4.14729133658601        1.78556750337639        0.17011376303294
C            4.81280489351900        2.74618723353661        0.89441673166030
C            4.27797089937838        3.16015670088707        2.10671057032484
C            3.08249406140366        2.59874447455124        2.57140050813315
C            2.41615668760946        1.63698204975568        1.84724462507358
C            2.74174443973789        3.21133090693170        3.87094876539821
O            1.77985514811367        2.96820437994999        4.56585458263462
C            3.82074905816909        4.17988257637821        4.14112829078835
C            4.00722372866177        5.03437275643808        5.21115800430092
C            5.11905457289243        5.85336015078388        5.21799766506173
C            6.03208047527211        5.82093057484613        4.17335090684258
C            5.85216366529007        4.97004479273426        3.10111011023753
C            4.73736965017221        4.14441372944142        3.08421689505547
H            0.74579490324208       -0.97269146294618       -0.45540808346446
H            0.40806170949113        0.54755124356720        0.39795267628572
H            1.28934363671390       -0.77851513419837        1.22602370359147
H            4.54036464889182        1.44894903721409       -0.77259929237365
H            5.73163210412113        3.17671469480290        0.53775581133085
H            1.50470237437176        1.22740493791479        2.23745328801884
H            3.29061455806827        5.04939310436631        6.01347432066789
H            5.27879298811293        6.52583023554116        6.04466252733138
H            6.89296591433602        6.46840798446444        4.19898729990114
H            6.55532689252591        4.94095856536719        2.28771626504736
