53
 energy: -10.302002788207 gnorm: 0.000482401989 xtb: 6.5.0 (97a52f5)
C            0.14540618807423        0.73474225484857        2.34267441119103
O            1.46153819679308        1.03176670360474        2.75123077520923
C            2.34721312185157        1.32567958169831        1.71024637657561
C            2.00343658119191        1.32979480045364        0.35011939540410
C            2.92339598030775        1.63285559537740       -0.62591349420898
C            4.23220928855657        1.96338352175691       -0.27276892916110
C            4.58943408108810        1.92471924646552        1.07813824951125
C            3.67115061797065        1.62205095373830        2.05504313410649
C            6.08530715514567        2.18374390140198        1.21103202886610
C            6.31941886122109        3.45046950951603        2.04913601028974
C            6.75921518504991        0.95204608388889        1.83880913024906
C            6.51949609621416        2.38794109885666       -0.24753853760668
C            5.41907851835228        2.30404442324307       -1.07398536685245
C            5.54309974628494        2.54024920653224       -2.49238317401002
C            4.43433552464438        2.62046397859994       -3.35233283289835
C            4.57706999241414        2.82401096119734       -4.69305683267246
C            5.85075939281179        2.97676240215790       -5.26529199215146
O            6.09035570708218        3.17785849659477       -6.62943000791764
C            4.93431033310948        3.19392766788405       -7.43636142223838
C            6.94833506792659        2.94023670153248       -4.41900879098045
C            6.83322156267147        2.74052875239374       -3.03964932907775
C            7.99732879419913        2.77025321337970       -2.16474980029466
C            9.28889454408008        2.96140888967649       -2.66328058715012
C           10.40741337685764        3.02153321295168       -1.84505284002643
O           11.64954590932987        3.20837297062347       -2.46012736268454
C           12.74803823318201        3.23875919151247       -1.57691135609001
C           10.21525736091739        2.89321670583067       -0.45783253326201
C            8.96957596574410        2.70536087206994        0.05995475339162
C            7.83012383952894        2.62731957373433       -0.76520058725117
H           -0.45666122858761        0.52709342314980        3.22831294779173
H            0.14405607659077       -0.14780742642839        1.70143513238207
H           -0.28374124918614        1.58951007335941        1.81791003406016
H            0.99961638056201        1.07879770163157        0.05967471208732
H            2.63463427893813        1.55933212304171       -1.65632050828302
H            3.96073202497188        1.60132673224807        3.08881351228158
H            5.92391482727176        3.32602357272008        3.05628029482417
H            5.81772584215249        4.30405764535468        1.59482671918850
H            7.37689458632646        3.69065068021352        2.13329335502251
H            6.35818892780904        0.75840778354154        2.83276257171790
H            7.83466718982672        1.07803677812447        1.93599886247276
H            6.57932801357344        0.06855251123507        1.22751094738462
H            3.44530887997551        2.57356765008658       -2.94256429058424
H            3.70342905540357        2.87963783019347       -5.31672177742028
H            5.23490036784875        3.33970358215151       -8.47483494186922
H            4.28406934725672        4.01791712348262       -7.13920959663407
H            4.40789771689040        2.24216576456151       -7.35240947618714
H            7.91041470908022        3.08332255479333       -4.86962241275706
H            9.45553232665602        3.06664210723178       -3.71698061890754
H           13.66019803997650        3.37817975492295       -2.15859239077031
H           12.81718498529921        2.29391999622301       -1.03613853954956
H           12.64425590946748        4.07141612954643       -0.87993312339921
H           11.06165903664068        2.94227166581030        0.20267505725354
H            8.85766873265202        2.61938377128211        1.12418504163546
