93
 energy: -18.104686061007 gnorm: 0.000636831735 xtb: 6.5.0 (97a52f5)
C            3.03446578336648        0.86566930296434       -0.54285837259606
O            4.29655637800700        1.27894008753252       -1.01337191893654
C            4.99508467504982        0.31437084220820       -1.75081283572118
C            6.24288951041400        0.67179936122575       -2.26092629373413
C            6.98304393161756       -0.22133069928346       -2.99230355804550
C            6.51535973364412       -1.49879167126303       -3.23665748189827
C            5.26549652766958       -1.88465340953879       -2.75297847401450
C            4.52875942391862       -0.97563525420300       -2.01389128469124
C            4.71252425504266       -3.26790754372864       -2.99542277398790
C            5.09337863832336       -3.89440302195401       -4.35202967642959
C            6.60044335399881       -3.79407061587846       -4.67607263722430
C            7.48080245344588       -3.97912528231269       -3.18746179637634
C            5.76781432664495        1.32061774870082       -6.93622431717866
C            5.85371819815886        1.52651422004037       -8.29455449460275
C            6.22171001629360        0.47184194541184       -9.09512169307266
C            6.49600702459521       -0.77435741696296       -8.51150281456474
C            6.40267138415661       -0.94793705467198       -7.12280709048491
C            6.03558439396737        0.11397843342836       -6.33261177632118
C            8.38213893050031       -4.00372754714526       -4.68477871531075
C            9.77917243431394       -3.07203994641430       -4.82106940642550
C            9.73848134470341       -1.89255845559289       -5.73934950417486
C            9.95756186003449       -2.10598424206080       -7.10119923455667
C            9.93426954889222       -1.05940931723712       -7.96218582917114
C            9.68675274412388        0.22089729959170       -7.44828317696815
C            9.63863588397086        1.36255326585702       -8.27357561569527
C            9.39315925390841        2.59417030443725       -7.73939323084144
C            9.19063422222382        2.74260439840213       -6.37425004640309
C            9.22702055081680        1.65422852978873       -5.51714788760873
O            9.03159807290193        1.79684146301426       -4.16440563465031
C            9.47712779646250        0.34819976351286       -6.05663206978177
N            9.50117296254174       -0.70918277065338       -5.21452633211295
C           11.09513229264679       -3.73436038869961       -4.60863229488146
C           11.37074011112678       -5.09015871167160       -4.64107330234977
C           10.43041308541152       -6.19416230297695       -4.92797387502230
C           10.18480733637718       -7.18255762230843       -3.97794592339585
C            9.30663624101867       -8.20929453879525       -4.24395126795635
C            8.66071981632908       -8.27006266090319       -5.46219488422102
C            8.89717635357876       -7.30172200503802       -6.41679415932408
C            9.77540064832166       -6.27420818178953       -6.15489459800268
C           12.75915732727711       -5.24018527004435       -4.35928631249129
C           13.28282045932456       -3.98793204035641       -4.17195733146794
N           12.26065006861910       -3.04081012522000       -4.32523174314515
B           12.43760582173853       -1.60072158433339       -4.31029727843802
F           12.88605683949036       -0.98976858767321       -5.43729855916009
F           12.53455303594825       -0.95990273057688       -3.11750611294226
N            8.85674854785169       -2.88982906506400       -3.43600048624832
C            7.36155513343854       -2.42428678636032       -4.08862365112278
C           14.68825769564774       -3.77800183286722       -3.89223618115685
C           15.17711796246179       -2.53856584549709       -3.48141714417776
C           16.50418652639502       -2.35955522013310       -3.20164820680953
C           17.40909498142163       -3.42425376376412       -3.32143485172489
O           18.77123816835809       -3.33943245415779       -3.06052169453527
C           19.21820748511871       -2.06776745307757       -2.64806146744859
C           16.90693081886787       -4.66744489396422       -3.73592002570757
C           15.57470829363914       -4.86350218086898       -4.01951575020090
C           15.08912956650289       -6.20999011725359       -4.50556344370328
C           13.58311139139302       -6.48405600551702       -4.26891091809101
H            2.58139825514935        1.69280149195550        0.00536808050437
H            3.14904235734844        0.01537228331140        0.13090736851843
H            2.39102933518344        0.60513499450220       -1.38445709888832
H            6.60734224847853        1.66621594706101       -2.07592603796499
H            7.92056522221738        0.07525348075352       -3.43030937755706
H            3.57221440427450       -1.28083050108517       -1.63442176975863
H            3.62025937791474       -3.23373133822708       -2.89833767054379
H            5.05203595756645       -3.92100112964607       -2.18331533080977
H            4.53503390845698       -3.40202054904946       -5.15525324796213
H            4.80214849471792       -4.95042492099448       -4.38590819879429
H            5.63812605565630        2.49908132858055       -8.71063329134422
H            6.30155471158667        0.60041884993876      -10.16133602960879
H            6.78931771927197       -1.60233355357453       -9.13387490819306
H            6.63008550980437       -1.90244025789476       -6.68023375322139
H            5.97239126141456        0.01911987068526       -5.26035827485471
H           10.14970851247997       -3.10439631281289       -7.45303869577960
H           10.09988464085777       -1.19697541347826       -9.01665353695613
H            9.79400643384699        1.24886544939938       -9.33225914036799
H            9.35449082606095        3.45918228615767       -8.38098337700374
H            8.99644670290763        3.71872901312418       -5.96794173825081
H            8.92202536622674        2.74323562490998       -3.94101651144472
H           10.68496489617368       -7.12696927721930       -3.02665906495373
H            9.12251669348258       -8.96608641274553       -3.49918228303711
H            7.97318861128064       -9.07379581598055       -5.66875210801585
H            8.39314062999285       -7.34928338172076       -7.36809866118008
H            9.96386461978782       -5.51814644963933       -6.89668119460885
H           14.48350720316277       -1.72480684086902       -3.36964080249957
H           16.85272013491323       -1.39378210642192       -2.88464414701377
H           20.29324211996980       -2.11986179215906       -2.47033274481227
H           18.72035826304267       -1.78093964317371       -1.72067369744517
H           19.02465360070560       -1.33363159072080       -3.43146086929141
H           17.59884849156600       -5.48295746742768       -3.83810738223651
H           15.69127337949752       -6.99515484904404       -4.03307389700825
H           15.30730315005925       -6.27981350262883       -5.57735626250180
H           13.43615797589331       -6.92834379731318       -3.27806151563872
H           13.20397131646408       -7.22025408305325       -4.98758538947132
