72
 energy: -14.879705675917 gnorm: 0.000789905267 xtb: 6.5.0 (97a52f5)
C            1.66055554147219        0.21183357499018        0.34445665464178
O            2.82033359704730       -0.54770503724493        0.60544679956994
C            3.33835214685774       -1.20696105396643       -0.48776729172096
C            2.80206345991050       -1.15185253020186       -1.78976960930981
C            3.38266092581843       -1.84517186553930       -2.80989217225555
C            4.52279555539033       -2.63257005011120       -2.60556010471491
C            5.08584092357252       -2.69517336363750       -1.30958230835440
C            4.49304042603814       -1.99264269255056       -0.29107928331682
C            6.36073632855521       -3.46174448247841       -1.05515304849975
C            6.63346689548527       -4.62536104027757       -2.03780727256354
C            6.14206502116908       -4.34501445817375       -3.42381642141610
C            6.54641487234838       -4.88206549892169       -4.64810682931286
C            7.55268912768573       -5.91574821470084       -4.90335916993845
C            7.96672161820373       -6.81654803513077       -3.91918414142137
C            8.92886852683539       -7.76504687628941       -4.18538480662466
C            9.49796647983767       -7.84747460021535       -5.44049205153763
C            9.08788448609856       -6.98430408501531       -6.43589520415856
C            8.12416854162687       -6.03994053664317       -6.17066626343533
C            5.78506422300328       -4.20737750971934       -5.67333631458406
N            4.94084028179832       -3.35306323611476       -5.02037427618173
C            5.13057126184395       -3.39032146569089       -3.66419103445890
B            3.97613341831480       -2.45280312099254       -5.79653916579094
F            2.66759796514721       -2.78169088865927       -5.47720768587693
F            4.27292634183794       -1.13165343941314       -5.49949800185164
N            4.18473259155427       -2.70499354901520       -7.29080168920787
C            3.50433108697157       -2.15210517220341       -8.33691901034536
C            4.03519806869651       -2.71587907776640       -9.51073833386892
C            5.03524162079125       -3.62535631758269       -9.15084532344708
C            5.88456843777076       -4.43908190012298      -10.02942981122047
C            7.24745549112476       -4.57426561319323       -9.75877167068096
C            8.05688528927528       -5.34006854389848      -10.56550796202542
C            7.52292577954970       -5.99523895033135      -11.65752453667818
C            6.17455880470171       -5.88560296006113      -11.93526125858440
C            5.36152509598700       -5.11950479881222      -11.13130877760338
C            5.11938933813212       -3.61350777333156       -7.71519802619653
N            5.92890631766456       -4.38066617559798       -6.98770233628740
C            3.59325278086990       -2.25644893263496      -10.86423293504112
C            2.15044325909939       -1.69826725875981      -10.84976238068744
C            1.77626673951940       -0.93772832845861       -9.59857171556573
C            0.74867104310358       -0.01136888554619       -9.63575694447826
C            0.35925943102877        0.66792055189549       -8.49831130404114
C            0.99509891664098        0.42670254751410       -7.29807648947605
C            2.01712139449090       -0.48969032056120       -7.23864094931571
C            2.42402094894767       -1.18425287934077       -8.37438379057235
H            1.33579386152169        0.68063316103846        1.27434982513303
H            0.86342101401190       -0.43785441730875       -0.01965088553758
H            1.88216352511419        0.99234020270540       -0.38476958059794
H            1.92572026251483       -0.56049638185655       -1.98205589686358
H            2.95858573133465       -1.80913252920507       -3.79508454941665
H            4.91909969663487       -2.02289932611915        0.69471029106150
H            6.34776129453498       -3.83758779290791       -0.02489872544803
H            7.19382274350903       -2.75024670416805       -1.09414433725160
H            6.14725235796025       -5.53664821029691       -1.67150380898801
H            7.70819262803864       -4.83898007011565       -2.07278030174149
H            7.50279114552326       -6.79431091180483       -2.95056943661102
H            9.23584816421486       -8.45053143424256       -3.41236023846295
H           10.25183032597258       -8.58989754682343       -5.64515857620717
H            9.51760153462019       -7.05505138685687       -7.42164634343715
H            7.78399300036795       -5.38942935217733       -6.95355668768824
H            7.65932078425448       -4.05686249917462       -8.91012279948491
H            9.10804408683153       -5.42924005943856      -10.34538409142722
H            8.15720295143246       -6.59572080299247      -12.28877815085314
H            5.75629093997588       -6.40841231004145      -12.77987034420657
H            4.30415577822615       -5.07428099383031      -11.32347189194830
H            3.68072692450884       -3.07552413553725      -11.58516796583537
H            4.28798795009890       -1.48285072056039      -11.21090818121231
H            1.43997264593253       -2.52421665509742      -10.96978369064333
H            1.99209853745502       -1.04847377074270      -11.71895494698296
H            0.24350434538551        0.17112660819424      -10.56881353422608
H           -0.44378726349101        1.38482937155748       -8.54812523530014
H            0.69221857751978        0.95668656788497       -6.40980886966816
H            2.52472605418029       -0.67580305557616       -6.31139679771084
