70
 energy: -14.772496435847 gnorm: 0.000152704159 xtb: 6.5.0 (97a52f5)
C           -0.83034986469468       -3.75048842723336       -3.39031132521352
O            0.52046339570739       -4.07917488385539       -3.15315668129941
C            1.43051076236261       -3.12245704202375       -3.55922855043390
C            1.09441619243404       -1.90876586673041       -4.18649283350127
C            2.06531910404999       -1.01906915163844       -4.54427251055990
C            3.41827290548640       -1.27870000140304       -4.30140754306269
C            3.78129521252295       -2.49198749039447       -3.67602414881835
C            2.79454541699453       -3.37886221384727       -3.32179798520069
C            5.22133221843510       -2.78813910450612       -3.33190396041882
C            6.26946670018460       -2.05906596268524       -4.20675417250693
C            5.82469617283307       -0.69296383141294       -4.62686948049542
C            6.57352077567056        0.42491700372758       -4.99241907955909
C            8.02902729934103        0.55041119200374       -5.10781577706867
C            8.85709176971410       -0.55414928896400       -5.31780623720633
C           10.22289941053668       -0.40744812245331       -5.41376073638078
C           10.79764547880634        0.84345777818221       -5.31078042745957
C            9.99754438837337        1.95210704828956       -5.12410604619403
C            8.63304818341175        1.80619001208839       -5.03236438801121
C            5.63657323367545        1.49845590553996       -5.23288640081425
N            4.38783630015703        0.95796051985987       -5.04841652170313
C            4.45471729713351       -0.35082545906968       -4.67064623909012
B            3.12601986651605        1.79936946143983       -5.25029719975482
F            2.39941524430824        1.31636060128238       -6.32708983188926
F            2.37386195280624        1.81151243892791       -4.08641345179736
N            3.58539106505738        3.21614364519933       -5.56282973894730
C            2.75664355785744        4.28643322425527       -5.76236544951929
C            1.35544290345886        4.37433084420126       -5.75059557472768
C            0.77140431825454        5.57038748611502       -6.02094429872753
C            1.54737434946997        6.72581712715932       -6.34944450788607
C            0.92437045270150        7.93989573620143       -6.68889535924277
C            1.66296481200120        9.02541981784535       -7.06931093214963
C            3.05151214808777        8.94072780847029       -7.13926437421024
C            3.68985320050219        7.77888612819113       -6.80639802583840
C            2.96669284640136        6.65537627343916       -6.37647152021449
C            3.58235770829260        5.40511217421552       -6.01937431433370
C            4.93865179091342        4.96914589059725       -5.90589584564036
C            6.16621695779453        5.76454018639768       -5.87506716891755
C            7.34829840782571        5.26727456348375       -6.43132351856711
C            8.51780999450671        5.98760421068997       -6.36711424407350
C            8.54228748719490        7.21389483632214       -5.73181977572688
C            7.39251870271738        7.71251969219748       -5.15101006695916
C            6.22036420519126        6.99604741609575       -5.21357375309655
C            4.90287386396880        3.55803634565399       -5.66315056067868
N            5.96472586533101        2.75363379667470       -5.52210287760503
H           -1.45552644719909       -4.56335554457502       -3.01831025844552
H           -1.00303219438153       -3.63386737719196       -4.46112376577787
H           -1.08961391367224       -2.83434535317556       -2.85765196688637
H            0.06445493870408       -1.67807385518148       -4.38798267436925
H            1.80195892857765       -0.09987717698435       -5.03355403384095
H            3.05614837204611       -4.29789327503750       -2.83069998170818
H            5.38080396351728       -3.87194780899475       -3.38356611273213
H            5.37728836832982       -2.52149348143185       -2.28019132826218
H            6.47468201986168       -2.65230143413976       -5.10497284853248
H            7.21902784566194       -1.97872546865889       -3.66483145697376
H            8.42023706024966       -1.52789893079945       -5.44258457255406
H           10.84568832174863       -1.27194248805981       -5.57622396724866
H           11.86686924127660        0.95498450718733       -5.38631174810401
H           10.44084772841670        2.93213871867881       -5.05800329253825
H            8.00861986685786        2.67223550093761       -4.91645402157686
H            0.77653525567986        3.49615514594424       -5.52666646128002
H           -0.30121731890390        5.65672862899527       -6.01500836151056
H           -0.14980015402002        8.00103732207634       -6.65723942561130
H            1.17011582057567        9.94730566079695       -7.33110250969774
H            3.62308495927979        9.79509396796084       -7.46316831254724
H            4.75714653737215        7.71011339283128       -6.90539322481437
H            7.32892946794767        4.30373545902139       -6.90965904197628
H            9.41819647048148        5.59228451169416       -6.80787026167981
H            9.46007451382112        7.77626362376298       -5.67966395612189
H            7.41601507933797        8.66116145817747       -4.64014157557086
H            5.33544121409156        7.36422197757869       -4.72370140406677
