74
 energy: -14.247335874911 gnorm: 0.000357286358 xtb: 6.5.0 (97a52f5)
C            1.08802512762344       -0.88610529093968       -0.49334256761218
O            2.35840162736460       -0.27408913382843       -0.49029675588912
C            2.76375689520092        0.22586261790308        0.75279334905159
C            1.99784191478555        0.16687286251872        1.92820423893734
C            2.47699575362372        0.67437968964583        3.10457189899532
C            3.74580683964105        1.27125070493214        3.18939037605479
C            4.52248839151674        1.34411359147707        2.00854824524834
C            4.01796512878092        0.82238657249981        0.82685694054530
N            5.79980795345093        1.92511207772358        2.05640168934581
C            6.60011776576149        2.08454123676204        0.86321954770311
C            6.22843027273053        2.99735977150399       -0.11914788912526
C            6.99512095346063        3.16002392562069       -1.25039276711461
C            8.15114780283471        2.41399318187680       -1.43953575590696
C            8.99438965091093        2.61218041941716       -2.65109199959084
C            8.52582768923270        1.50866165249423       -0.45510373299176
C            7.76203633309969        1.34184164786395        0.67781528133539
C            6.25368602817130        2.38317449488219        3.30383205664142
C            7.50349224588106        2.94323443223243        3.44225572919252
C            7.98681955372943        3.42552638488721        4.67204389777181
C            7.12707719078764        3.33994741247053        5.81073116497886
C            5.87514953268736        2.77912217604626        5.67126129065437
C            5.39680812570464        2.28214735101294        4.44109421718140
N            4.17231574388747        1.74518246322280        4.39172835413842
O            7.53404711229516        3.81013871740796        7.04098749302520
C            8.80668412380879        4.33472274885025        7.10660577045699
C            9.63028122294338        4.37657014983169        5.95299372253670
C           10.92302464764707        4.90032697823776        6.07145464692229
C           11.41592195492108        5.37838843829042        7.26675170193492
C           12.83770582930284        5.94475608233817        7.40657663514695
C           13.61238778927131        5.12424858321930        8.45515438151251
C           13.61154040785440        5.88304061869656        6.07508582895723
C           12.75806014801839        7.41591220311063        7.85491783063342
C           10.58067977971323        5.33773162940318        8.38016822530582
C            9.29484302639443        4.83104506901012        8.32989261921535
C            8.38478412386547        4.79651100451607        9.56398990258636
C            9.07616055801648        5.38315851919818       10.81055514582456
C            7.11901023660358        5.62321735757104        9.27877708042858
C            7.99822225266244        3.33853990701441        9.86629941028719
N            9.21804482131005        3.93334598396026        4.73590823606791
H            0.87505212758012       -1.24705586016059       -1.50041263081784
H            0.32361816256992       -0.16078284696543       -0.21137226753368
H            1.07992018002291       -1.73383462685736        0.19327561693361
H            1.02265571741407       -0.28417768927222        1.90576346599967
H            1.88215334690794        0.62003907352087        3.99942867476602
H            4.61001715263662        0.86981664551154       -0.06649928061784
H            5.33484873500284        3.57911379717904        0.02554813460824
H            6.70325982168089        3.87509131744100       -2.00052095801122
H            8.39359476512861        2.94148984720796       -3.49973718150446
H            9.49306909544715        1.68589449684001       -2.93887467305126
H            9.76155080316665        3.36574952637056       -2.46926749796458
H            9.42693099704969        0.93434158488981       -0.58689510477505
H            8.05133973988554        0.63318767562794        1.43409809985741
H            8.14433085920614        3.01508070761947        2.58548715346926
H            5.24037114619198        2.71759132636648        6.53415290694808
H           11.53156546046080        4.91663785106408        5.18733325255373
H           13.65671730893732        4.07492654717815        8.16596455610774
H           13.13864202102685        5.18192207102959        9.43374982377930
H           14.63353193081521        5.48937482707992        8.55884659085696
H           13.70361250971465        4.85654411274453        5.72204096605335
H           14.61854225784780        6.28113416083379        6.19546858315662
H           13.11493987018515        6.47202107048934        5.30485788062015
H           12.26691815424919        7.50912245429140        8.82224057837317
H           12.19439127066240        8.00745288899473        7.13439342445083
H           13.75318827721437        7.85031498614331        7.94374993709729
H           10.96020983102622        5.71552799410231        9.31028295340670
H            9.35659561334916        6.42365413593464       10.65106635748255
H            9.97072984225690        4.81666964720906       11.06656913749998
H            8.40941878486923        5.35103312525294       11.67163186867595
H            7.37663431806379        6.65856588313334        9.05864066015845
H            6.44436506969904        5.61564678486633       10.13408123993429
H            6.58016250520796        5.22354754044980        8.42129488992756
H            8.88508931685905        2.73835844403275       10.06609333781039
H            7.47615955698122        2.89254137456867        9.02141896939945
H            7.34461689515163        3.27855489250958       10.73573509405172
