38
 energy: -6.338031760855 gnorm: 0.000817589382 xtb: 6.5.0 (97a52f5)
C            1.95447394810128        2.98607551644022       -2.63581526572706
O            2.78551097302939        2.61523654493439       -1.56310465374504
C            3.11267497548575        1.25553290957654       -1.49948356212813
C            3.90857230563788        0.84588140212406       -0.41585989100019
C            4.28205644049138       -0.46333965416961       -0.24903475666788
C            3.86160066189907       -1.41120152763831       -1.17906161925297
C            3.07743108522728       -1.01861636847878       -2.26004917770374
C            2.70351473881099        0.29857497832076       -2.42609285297749
S            2.69979599763631       -2.40829082552782       -3.26660072792041
C            3.57688683834567       -3.51665608923302       -2.22572215915731
N            3.67268815539229       -4.82043753999960       -2.43358301527756
C            4.36374313130955       -5.45789246028144       -1.50173494168346
S            4.63712032031783       -7.19197114220712       -1.48276849805455
C            5.55826120347589       -7.12299646958066        0.01186603976091
C            6.14486070123948       -8.15356442687402        0.71615559034914
C            6.83803149166151       -7.87987052146161        1.89362681153977
O            7.46616803978283       -8.84556217246847        2.68963609599594
C            7.32958757315553      -10.17308697100030        2.24637921425466
C            6.92242274222053       -6.54669890310796        2.33004467476216
C            6.33995891314499       -5.51986223672486        1.63154100929684
C            5.64750811460281       -5.80734943072451        0.45748549702186
N            4.96973571696520       -4.91164357976846       -0.41397283418479
C            4.90548648170241       -3.47348303329774       -0.16118980004006
N            4.11742751253409       -2.80962231978661       -1.19756640923313
H            1.01171686512416        2.43969994218511       -2.57454304888012
H            2.46586760650479        2.78971659200859       -3.57958504934728
H            1.75555384855709        4.05595190322964       -2.55032170589830
H            4.21963046509840        1.59645719240085        0.29006664429418
H            4.89049683090058       -0.76221027686813        0.58603217260559
H            2.09965843409259        0.56639041563326       -3.27232762369584
H            6.05533784826072       -9.15605742538049        0.34260669747429
H            7.84255215264428      -10.81836972271706        2.96183897428206
H            7.79646211823566      -10.28166608248660        1.26580521439323
H            6.27229391891603      -10.44203875242473        2.21356477486881
H            7.46266395429546       -6.34978993262829        3.23983666341701
H            6.41288118630520       -4.50425201808523        1.97810290038475
H            5.91683033948658       -3.06165889824257       -0.15692056645699
H            4.44251636942202       -3.29832861568063        0.81196918433245
