23
 energy: -4.581147521100 gnorm: 0.000875502879 xtb: 6.5.0 (97a52f5)
C            1.17837318630522        0.48499110743233       -0.18969100571970
O            2.20858377686908       -0.30914318182909        0.34671693216119
C            2.90156065982258       -1.09617522141538       -0.58049756637095
C            2.63152766428225       -1.13610790979578       -1.96060090156658
C            3.36595380692222       -1.93739370781976       -2.79528410201572
C            4.39166538980137       -2.72451644974862       -2.28610580213990
C            4.67631828821949       -2.70211498919962       -0.92841979521255
C            3.93022916995638       -1.89098036357764       -0.08922889536463
N            5.72826762624181       -3.51048878156189       -0.42683607157451
O            5.97205218797055       -3.47063122115274        0.81862306870787
N            6.46111769150562       -4.30200714195355       -1.21680876994845
C            6.17972320111541       -4.31835954706370       -2.50389854322183
N            6.88528106706753       -5.10191038184190       -3.37271614305767
N            5.17271269291386       -3.56061178260006       -3.09511150997987
O            4.97703576788005       -3.63438446529840       -4.35573723942588
H            0.72247726036333        1.04250685852737        0.63010811508969
H            0.42379430896500       -0.15399285287609       -0.65145745976783
H            1.59425570446351        1.18816309766870       -0.91281866809581
H            1.84229854916689       -0.53164297566972       -2.36872363613811
H            3.16545934564893       -1.97354727724250       -3.85290495289497
H            4.15200067029358       -1.87283971739951        0.96238938451370
H            7.71679551927084       -5.59701641413457       -3.11294711095469
H            6.70239646495487       -5.03254668144844       -4.36087932702365
