41
 energy: -8.801601553977 gnorm: 0.000822980579 xtb: 6.5.0 (97a52f5)
C            1.27818622650591       -0.35946096673129       -0.40040905536165
O            2.68655147412481       -0.36144093314402       -0.39324559267991
C            3.27376197814348        0.43860922672753        0.59820261396494
C            4.69159566845430        0.49224835434740        0.61448749927431
C            5.37990458880005        1.23961557479412        1.52705708270801
C            4.65701003615513        1.97256310708028        2.47513505816435
C            3.24719008400201        1.93325892396365        2.47906868444348
C            2.55908133220182        1.16482026310669        1.53945710935771
N            2.79246221976463        2.75006045580573        3.50670366593528
C            3.88983721460716        3.30892177406492        4.14623215126195
C            3.96852621267680        4.23387655554996        5.24327914654665
N            2.97018578121247        4.84204664901242        5.99111781395653
C            3.56664532852781        5.67098014163345        6.93304371063748
C            3.02217501406437        6.50415480397433        7.90968822079785
C            3.86098087012443        7.24418818542152        8.73013111862852
O            3.24847856644050        8.06382401043052        9.69062232628106
C            4.13469504490622        8.81016122117473       10.49034768056337
C            5.26587617255688        7.13660030985169        8.55889995054279
C            5.81464524738213        6.32457474094465        7.60644737498221
C            4.96511084568895        5.58052476392504        6.77947527759665
C            5.21141880398816        4.66965301730286        5.70993523234392
C            6.44759595643382        4.20374537418764        5.10471572969029
N            7.67460562667968        4.52300948996573        5.42751538987228
S            8.68742467090059        3.70760535841591        4.40858877546531
N            7.53877203229080        2.91990616105360        3.52100422920250
C            6.36795302858575        3.26806454570260        3.98996654781661
C            5.05558467653821        2.84277122832793        3.53278996648542
H            0.93632047933262       -0.99427048214532       -1.21909709633339
H            0.90969297619840        0.65474798023464       -0.56112766357461
H            0.90234240096326       -0.76181897006279        0.54141276022809
H            5.22068703423773       -0.07981320585892       -0.12675126084394
H            6.45389609002313        1.28120992821571        1.53153131766729
H            1.48731845826310        1.14991098489621        1.56146284120367
H            1.81698328456963        2.92693474429819        3.73772398095450
H            1.96859192144727        4.71616047984942        5.86055685608591
H            1.95873185086809        6.57684596680725        8.03127820940141
H            3.54780803356543        9.41327043297294       11.18457125480036
H            4.73087346972319        9.47495066469311        9.86342990704854
H            4.77642865270654        8.13729410417963       11.06121282205566
H            5.91743337486876        7.70974321058174        9.19235010100008
H            6.87871727147225        6.24523182442884        7.47596826183346
