46
 energy: -8.689858631038 gnorm: 0.000337537339 xtb: 6.5.0 (97a52f5)
C            0.92851113273020        1.04561335078320        0.19817431823536
O            2.27902245635903        1.14132740252671        0.58504208827697
C            2.83450046169132       -0.04554986244232        1.08776892766891
C            2.14581213756454       -1.25782052803738        1.22077829023063
C            2.76511596085592       -2.36964660402944        1.72812281754495
C            4.10409051904898       -2.34138439109859        2.13336088166238
C            4.80669029317678       -1.13412090044506        1.98790025613340
C            4.16482253532327       -0.01536121402429        1.47818836278314
C            6.21548022983415       -1.04609397794573        2.35905739140001
O            6.82475834790430        0.01138720169199        2.27792893877446
C            6.87088258321496       -2.26758451595964        2.81280085116218
C            8.22984199284834       -2.24805177769617        3.10807370175095
C            8.87764609460835       -3.38595249275707        3.51589162618831
C            8.17383590001265       -4.57369267783732        3.63156076410111
C            6.83186166490652       -4.61324524772730        3.35050750401252
C            6.14048005683649       -3.46422853506410        2.94472456108947
N            4.75868032302318       -3.47390030754191        2.67319237893123
C            3.96965992446916       -4.68518125778268        2.96587973289366
C            3.89748386710661       -5.62554840880583        1.77147078108316
C            3.08212989018202       -6.88775785722407        2.04812154715933
C            2.98467854773393       -7.81052559456535        0.83381281121481
C            2.20500379296390       -9.08931526239934        1.11205076607303
C            2.13610453890009       -9.97164177460208       -0.10657266063939
O            3.12197315147745      -10.61312275250613       -0.40483030486540
O            0.97483831246870       -9.97848288127901       -0.81619237925849
H            0.60668209498598        2.01967674387070       -0.17300229501125
H            0.31497841362031        0.77316138303199        1.05818745551365
H            0.82309198400556        0.30928433305279       -0.59992237855125
H            1.11655876654530       -1.31969279402403        0.91806269677753
H            2.20800756626473       -3.28587776656834        1.79699871867922
H            4.71427068796206        0.90241033342443        1.37930339217037
H            8.76445632514647       -1.31922505812359        3.00526237776601
H            9.93139665795509       -3.35872637027700        3.73982325873864
H            8.68562546101291       -5.47013063072986        3.94131701665302
H            6.31259803481480       -5.55083750044555        3.42607768308052
H            2.96940199274810       -4.38888046051556        3.29180505258143
H            4.39496739090816       -5.18989019109282        3.83681144761686
H            4.91160796821030       -5.89931967823783        1.45943254189414
H            3.47567552536655       -5.09302295555862        0.91174014983333
H            2.07505185527247       -6.61034960849843        2.38061016745053
H            3.52285711778492       -7.43267231615482        2.89097259506624
H            3.99089966061119       -8.07004888978430        0.48413541133105
H            2.52206416100128       -7.27341813916190       -0.00233630987455
H            1.19826910268936       -8.85236167478247        1.46655876559250
H            2.68210042059513       -9.64900515269369        1.92189404705005
H            0.30531409725497       -9.38779273996885       -0.42031574797057
