54
 energy: -11.303917624466 gnorm: 0.000454157096 xtb: 6.5.0 (97a52f5)
C            0.41463044304559        0.10430750619613       -0.82437495221937
O            1.38294062061669       -0.75679852427846       -0.27326280909980
C            2.29653931747305       -1.28220178295245       -1.19112699471924
C            2.32261161331828       -0.97817617503817       -2.56459184562671
C            3.23591720139758       -1.55947193383214       -3.39437817740034
C            4.16827546040495       -2.50655995520652       -2.92898030518722
C            4.21922762963128       -2.73813651874134       -1.53255418726612
C            3.26024209881319       -2.14792827758451       -0.70487702730886
C            5.30066086171923       -3.50317198795245       -0.97027012773892
C            5.36764133827035       -3.74858578939949        0.40529066703043
N            5.41257383172386       -3.94571241802832        1.54900190945754
C            6.31504649297544       -3.91172595243882       -1.78166417302176
C            6.28761955556317       -3.70704859843904       -3.17893933448575
C            7.44649625147704       -4.01955385876947       -3.93915632781306
O            8.61306273797617       -4.46623247830888       -3.28592319453077
C            9.70636960370469       -3.58589098582298       -3.44237399075617
C            7.44037492448671       -3.82377661262849       -5.32558031590741
O            8.58478885080537       -4.11916279722822       -6.09377183367321
C            8.97702387277439       -5.47311297379607       -6.00616526898314
C            6.25390235836253       -3.38057104135878       -5.96920203469621
C            6.26967276616250       -3.19005145725695       -7.36849443104582
C            5.14010107722244       -2.90389090680837       -8.07312184528149
C            5.21389320665355       -2.70480375466800       -9.45604998073225
N            5.25964715453855       -2.53758066286476      -10.60458618733754
C            3.87065268624010       -2.90807033652788       -7.39437121391433
C            2.67963459250267       -2.79900006295313       -8.11952334757732
C            1.44163473593000       -2.95548909268275       -7.52155643098419
O            0.21720393259006       -2.85535540058803       -8.18772945382539
C            0.30736277648932       -2.53657475924010       -9.55643775395900
C            1.41124360914088       -3.26111050143806       -6.14899983242576
C            2.55818162952354       -3.34936852049065       -5.41775387010819
C            3.82074044567754       -3.10984264009151       -5.99273594971073
C            5.05732304761566       -3.18022069832658       -5.23429125254363
C            5.13874457901040       -3.14981501487519       -3.79712633267968
H           -0.25533333861374        0.42174074154441       -0.02388572028244
H           -0.16355639416252       -0.42576864780459       -1.58286833049041
H            0.90133612818473        0.98313937147884       -1.25010494994554
H            1.61997349834254       -0.27068452175298       -2.96534071950978
H            3.26641780343369       -1.26840919312327       -4.42954976547701
H            3.28103591631473       -2.34168607370158        0.35090145870071
H            7.16980453835551       -4.40563010626005       -1.35400591312364
H           10.58529173590576       -4.03268305608695       -2.97546479111896
H            9.47385976623939       -2.63825760717870       -2.95417265103986
H            9.89811704913079       -3.41549993362518       -4.50278911865044
H            9.89329657769839       -5.60985980823381       -6.58234093092719
H            8.18685393759479       -6.10116525375759       -6.42021639040700
H            9.15314579400300       -5.74253270698780       -4.96391195055402
H            7.20918731121030       -3.27710934152246       -7.88528668649114
H            2.74364504692095       -2.62246241609009       -9.17530187097991
H           -0.70478432274357       -2.46469149407444       -9.95739724857364
H            0.84398593638528       -3.32545393707827      -10.08574061722038
H            0.80864104563827       -1.57534897382834       -9.68019707751120
H            0.45278227928805       -3.42858652150114       -5.69024373817563
H            2.50333838709539       -3.63464555599950       -4.38206478215790
