43
 energy: -8.354684540368 gnorm: 0.000740497142 xtb: 6.5.0 (97a52f5)
C            1.69141119943767        0.72402721906172        0.23195373136169
O            2.93176361237736        0.10601148409012        0.48778505993332
C            3.37223022664040       -0.77750608298498       -0.51571483717603
C            2.65274347135285       -1.05636948904656       -1.69974873844498
C            3.12548028160588       -1.92915490126362       -2.64776813176488
C            4.35034047794378       -2.55966130764787       -2.43445619472503
C            5.07976569078173       -2.29714020451970       -1.26302360293895
C            4.59232586048105       -1.40630362844444       -0.31065151379876
C            6.28528148296282       -3.07637324766598       -1.31793380459212
C            7.33529759716173       -3.19562862118013       -0.39359690846791
O            7.30007695416140       -2.50827099769946        0.84467372046813
C            6.71745489408293       -3.27386623343346        1.88323124863991
C            8.41351774786490       -4.05335634722319       -0.74418249239441
C            9.51400683678559       -4.20980080118264        0.12190432254742
C           10.54537877766558       -5.04040282982702       -0.19862751361459
C           10.53001837291431       -5.75907831337486       -1.40197494224820
C            9.48781089363611       -5.62928723363781       -2.26973169048186
C            8.40421138114396       -4.77466480692558       -1.97982094563266
C            7.33068631609397       -4.63675255973103       -2.89790698210164
O            7.33816265398350       -5.30733421219599       -4.14718053111121
C            7.99367010681595       -4.56135531845363       -5.15292256289737
C            6.27326212301545       -3.79061865425481       -2.53473270404258
N            5.08045081672871       -3.48106853840866       -3.20796708315572
C            4.63067588461020       -4.06433942492688       -4.46349734336473
H            1.44843307541930        1.37759943476747        1.07102862883535
H            0.91014529186711       -0.03137383827049        0.13706737518257
H            1.75494627515911        1.32504239965448       -0.67631232023814
H            1.71004864425617       -0.56906047596810       -1.86726233168218
H            2.57170713503933       -2.13029059663877       -3.54738373324006
H            5.15976337483825       -1.19979271813739        0.57632013836256
H            5.68672894202721       -3.51960036636794        1.62406744400330
H            6.73114891430671       -2.69166539591764        2.80568210565818
H            7.28443879261140       -4.19466668139140        2.02600746993724
H            9.52796118358689       -3.65120939799165        1.04152617317487
H           11.37937660694668       -5.14837243613456        0.47506971310669
H           11.34948561648626       -6.41717070448206       -1.63924378575299
H            9.47083770099983       -6.18680032980931       -3.18991168626726
H            9.02632790386704       -4.37067976411585       -4.85918750409854
H            7.47738752347687       -3.61208547498646       -5.30006159498535
H            7.98133468981890       -5.12971231788414       -6.08381697513193
H            4.76092206569755       -3.35045549700309       -5.27400393187170
H            3.57915056001197       -4.33520931609020       -4.39447440284903
H            5.20584204333595       -4.96102147235756       -4.68385034213780
