45
 energy: -7.803669075476 gnorm: 0.000762117046 xtb: 6.5.0 (97a52f5)
C           12.11402807855211       -4.59673992215651        0.31553613105939
C           11.04579767600841       -4.76841399905156       -0.71336539624007
O           11.06330279647807       -4.09459671535243       -1.71860203444560
O           10.09293147486029       -5.70241877794756       -0.44107888656030
C            9.15743536902306       -5.74929013776827       -1.48186552249885
C            8.01327095691709       -6.70443205885679       -1.15950938622957
O            7.31347799057890       -6.30101660688736        0.03092568661724
C            5.89182217861506       -6.45468508141455       -0.15686720342129
C            5.17110855655059       -5.08988375064843       -0.08456558061656
C            5.81532926267832       -4.10030464196370       -1.00651384097441
C            5.34171966899224       -3.74389488265109       -2.22219878112345
F            6.10015421535656       -2.87813871616857       -3.10842673002003
C            4.01395159492855       -4.26690051236821       -2.59373717348601
S            3.38799876737100       -4.04385712640325       -4.09367854591473
N            3.27337466245482       -4.92719097445915       -1.66096039949048
C            3.69970143317133       -5.26866367271717       -0.37627253069488
O            2.95145071841506       -5.71414914111834        0.45977522160219
C            5.68041416404861       -7.19047191853401       -1.51026261834817
O            5.56599418554970       -8.59158063056004       -1.25883673413091
C            5.01242156287961       -9.36149840922747       -2.25183777935852
C            4.53006444493365       -8.74812425820141       -3.52971895753018
O            4.86680741006390      -10.55880114769549       -2.12468785924757
C            6.96937911405545       -6.84907178056592       -2.29775699033710
O            7.33313976476720       -7.88340234195246       -3.22251044867419
C            7.73673627706776       -7.51310350754918       -4.48596937218272
C            7.77429459138188       -6.07830805758871       -4.91302574866579
O            8.05945092339888       -8.34003100670287       -5.31324619272051
H           13.09195229804113       -4.81488839410856       -0.11160610081460
H           11.94340938353030       -5.26862138368413        1.15622725047901
H           12.12338882131863       -3.57230580650416        0.68558235747189
H            9.69170392360589       -6.05443692605146       -2.39037047013944
H            8.77859219832563       -4.73114702671591       -1.62746738767852
H            8.42321313577476       -7.70128209914057       -0.93494214054232
H            5.54173620693458       -7.11663788768498        0.65061498209829
H            5.26076144108490       -4.71431474415214        0.94653191300118
H            6.76757162903220       -3.69857375200788       -0.70460125797400
H            2.31395108920348       -5.16380927584372       -1.88406167153983
H            4.76076788017077       -6.83716776589718       -1.99311458632893
H            5.25195264442523       -8.03941081661102       -3.92899649019264
H            3.57445074147671       -8.24581494770396       -3.38705642572088
H            4.38860179427320       -9.52795471313348       -4.27710018885765
H            6.84186714884186       -5.89538022022510       -2.81939547557575
H            8.39141994482065       -5.47221921662769       -4.25247825313558
H            6.77247378686725       -5.65334050323365       -4.96075013767793
H            8.20482809317165       -6.01003474415798       -5.91135824324419
