92
 energy: -18.575638817994 gnorm: 0.000220989537 xtb: 6.5.0 (97a52f5)
C            4.62835588494730       -6.24759095390419       -0.50807473031141
O            5.66081154248717       -5.48579802636176        0.07616428945722
C            5.23262470061742       -4.50155643337214        0.95653179574088
C            3.89033431481163       -4.27247772295083        1.31710230104068
C            3.55067768574373       -3.27094560015584        2.18123656863841
C            4.51634701209461       -2.42022540453235        2.74877971697177
C            5.87399867208347       -2.64788639869832        2.39459277978409
C            6.20194261964093       -3.67275778061843        1.52023705174871
C            6.88619733518909       -1.76525740841846        2.92930734850618
C            6.52818611674185       -0.66922534990277        3.76519214398849
C            5.16183090519335       -0.46387999866188        4.16599592441413
C            4.81757280093568        0.54723085193510        5.04799698810046
C            3.50384765177974        0.75251844483488        5.45905174274189
O            3.10531284119139        1.74040557715563        6.34712960665733
C            4.15290976427548        2.54665885580222        6.83542306599211
C            2.51871673128023       -0.10908430072239        4.93933223920488
C            2.83703300170792       -1.11538327886778        4.07396367548239
C            4.16151555350878       -1.33917595976691        3.65746539150805
N            7.67270811118961        0.00916632466759        4.01754047912071
C            8.76109568444943       -0.60079666942089        3.40937141042723
C           10.08096770310969       -0.11352983816221        3.45679052544104
C           11.21489694357797       -0.85497333829840        2.85370704008010
C           12.17745570907222       -1.46342507221843        3.68564838266211
C           12.07725535562832       -1.36444243756961        5.16900719556171
C           13.23224210675535       -2.14945677889572        3.11560563198421
C           13.36527532075879       -2.27017079776439        1.74196481587577
C           14.49188551708894       -3.04923123838059        1.15748910708931
C           12.40743125653281       -1.68289121312896        0.93024068202805
C           11.34633271201504       -0.96965227890747        1.45433056569021
C           10.36487417832533       -0.33829097728907        0.52833435680784
C           10.26903478258589        1.12145041063179        4.10571452328167
C           11.43632892503994        1.90987382265998        4.17382823914235
C           11.11648547182026        3.07438272275193        4.85813225479724
C           11.90810768671192        4.24871984836566        5.14610294372983
C           13.22509571126635        4.35020441476375        4.72461979394478
C           13.99019202640786        5.49197020246895        4.95937440664142
O           15.29439279914664        5.50148794161026        4.48392085850373
C           15.99896812680876        6.70126630424080        4.71142489742068
C           13.37937716083957        6.55290768054643        5.65608210937873
C           12.08455259276200        6.46745408295337        6.08186979866841
C           11.29858693357284        5.32500979937891        5.84590719826799
C            9.91405196133673        5.22918137644131        6.28652700500169
C            9.29082731961526        6.25508485659927        7.01897878189623
C            7.99676426760713        6.15597774642124        7.44282820686775
C            7.22410874773214        5.01108894852047        7.16616275851130
O            5.90949247433393        4.82656844500639        7.57021032542518
C            5.36869590695970        5.89221009038511        8.31872181958682
C            7.82861751625056        3.99031257694533        6.43710753405010
C            9.13723424316899        4.07423304188878        5.99047434247784
C            9.74694031911369        3.00542663638001        5.24423746864813
N            9.27334918548981        1.83269992848659        4.76028492796045
B            7.82419442326272        1.31243983156803        4.82827253655771
F            6.98856015610048        2.27266239931044        4.27354130128740
F            7.50910796319943        1.05136748184126        6.15379877649045
C            8.26016454177218       -1.73363587468099        2.73455992883170
H            5.07438553655617       -6.96288542750651       -1.20044863829619
H            3.95243392796535       -5.59483529588642       -1.06248480435776
H            4.08612529866860       -6.79458877802657        0.26438706268090
H            3.11864106792869       -4.89570125783766        0.90365483188217
H            2.51308221272638       -3.12884491423332        2.42097036256169
H            7.22750177565287       -3.83518587643047        1.24790031330433
H            5.59797774998035        1.17265581065824        5.42853274509865
H            3.73753390406537        3.27362477018697        7.53432433703142
H            4.62635225066562        3.08343398254501        6.01159586949964
H            4.88545636112297        1.93270424260158        7.36203583724297
H            1.50060644555822        0.04394212515787        5.25078633244045
H            2.05099164862738       -1.75307657469708        3.71410045216050
H           11.03671387263404       -1.31625865634990        5.49120831568317
H           12.58452648987560       -0.47065879076468        5.53302995052559
H           12.53089378820831       -2.22963222655412        5.65333681046190
H           13.96589128843008       -2.60881899154353        3.75399882117680
H           15.40882505760021       -2.89927341599566        1.72835561501998
H           14.68959849988530       -2.74717138681183        0.12868197513492
H           14.26491549000836       -4.11577045828248        1.15791923114149
H           12.49499313866925       -1.78041599759262       -0.13724365705159
H           10.87516828160226        0.17179468031099       -0.28924083110728
H            9.74859127601989        0.40008194647733        1.04138271691952
H            9.70210425508160       -1.08792943316198        0.09522666596705
H           12.38557529539835        1.66478094796871        3.73251604623480
H           13.67909491719546        3.53776581419591        4.18972560749383
H           16.99619830401162        6.60489970670096        4.27989868672165
H           16.09379250440127        6.88014497918136        5.78332744482795
H           15.48420142624382        7.53261706088662        4.22752212671901
H           13.94136502897229        7.44697865021192        5.85520229006435
H           11.65932683265622        7.30475609758391        6.60370212292493
H            9.84364553393790        7.14368481305838        7.26172402766912
H            7.56225972473169        6.96490913247165        8.00109246901165
H            4.34260968290409        5.64328954327564        8.59240012497320
H            5.36128536449390        6.80260731686482        7.71762504822136
H            5.94978388744627        6.03872114420531        9.23041082509235
H            7.25982153848029        3.10606889822232        6.23085563238152
H            8.83969336610547       -2.42269369404837        2.14727640258054
