102
 energy: -19.774061991246 gnorm: 0.000550961826 xtb: 6.5.0 (97a52f5)
C           -0.60368595420019        1.88052014255086        3.04709264099436
O            0.78742060323748        2.10496230636247        3.07153395952949
C            1.54415483153619        1.03265962978127        3.55172825405963
C            1.01454507984900       -0.20104300673483        3.95796428464093
C            1.82478292078908       -1.17143948254716        4.46954189571549
C            3.20929624449416       -0.98636231277714        4.63408536987115
C            3.77425626404954        0.19531062340607        4.09462630635348
C            2.92232183545591        1.19086894211732        3.61111610342670
C            5.21563313437099        0.26479241228063        3.89593183983244
C            5.80613688457053        1.29300132634941        3.15630823254809
C            7.13788163105620        1.25377291382567        2.76238151366706
O            7.78257956451098        2.25750985126502        2.03354025192209
C            6.98629619570391        3.38339171506865        1.74088767289558
C            7.88404941677501        0.11436557382494        3.09885439107373
C            7.33472785942342       -0.89102724279533        3.83790718001749
C            6.01522506874293       -0.82025537064340        4.31885415090156
C            5.45478460073106       -1.86078087919478        5.17173156777902
C            4.05928801255517       -1.97687025938024        5.27696912126175
C            3.53816077951774       -3.18347265782392        5.89843872278850
C            2.21371451765538       -3.35302573701917        6.42076698142814
C            1.45164176936829       -2.23480735440827        7.02724379868292
O            0.23043910462276       -2.26838855185194        7.06637877859172
N            2.18755617777667       -1.18929179555793        7.55575509210144
C            1.57182918940415       -0.03235045009871        8.24600788104405
C            0.62684351174793        0.68568904252467        7.27880272261902
C            0.79702996456436       -0.53807185177884        9.46618841991194
C            2.67995478458198        0.93013574135739        8.69202379197658
C            1.68363421059788       -4.62729816362711        6.47718536258763
C            2.42041746863730       -5.72846621214377        6.07184418945306
C            3.76897470348748       -5.61917631070260        5.78149693766001
C            4.48052394137769       -6.77012100931833        5.16533832535051
O            5.26062774378304       -6.58365989600798        4.24252399494436
N            4.21602856671459       -8.03421199336342        5.66235720591727
C            4.76905502923533       -9.26440694212308        5.04686912031393
C            4.26369635731699       -9.36242557604946        3.60438680200704
C            6.29911556667568       -9.19729121800742        5.06389020183367
C            4.29736250385566      -10.48431600774261        5.84793318868492
C            4.39670677032279       -4.33652264874389        5.91140801987348
C            5.81285028099889       -4.10164368164392        6.14583102560500
C            6.67409648176499       -5.06767046192694        6.81118254742912
C            6.17961490084237       -6.26279365880177        7.36295831785480
C            6.99373342461258       -7.19936765181267        7.92868078036514
C            8.37992970546997       -6.99724787421993        7.99328074706914
O            9.29690218448235       -7.91671598561996        8.51011315624891
C            8.73063920618109       -9.12463031500318        8.96514001189622
C            8.87291430633146       -5.78250958742337        7.53600946547962
C            8.05124723123901       -4.79104665400081        6.99425856929813
C            8.53503876219082       -3.43184130727490        6.79285088872689
C            9.82628122874142       -3.04925804721666        7.16685800297179
C           10.22463910420092       -1.71887374443210        7.20573824347085
O           11.50329561315591       -1.28063182307074        7.56259106315951
C           12.42516467006563       -2.30827373027870        7.84795608337282
C            9.26793380867616       -0.74255445199738        6.89062995287305
C            8.00953047920822       -1.09364227557741        6.50096092166782
C            7.62360242633161       -2.43951732178779        6.36769771461489
C            6.30283571687134       -2.81246743079012        5.87685735054851
H           -1.09435588138132        2.78272915998651        2.67959277760456
H           -0.96511671435742        1.66683793103764        4.05398589062997
H           -0.83568193374194        1.05389305483116        2.37410890313089
H           -0.04140382225516       -0.38269618504530        3.87320303075764
H            1.38882685189029       -2.11513009720971        4.73875195038579
H            3.31859912719348        2.11908899430286        3.24840252530700
H            5.20832528213837        2.12625218379366        2.84814712372817
H            7.59630016674915        4.11003637204059        1.20250534468723
H            6.62985898397143        3.83865909375643        2.66605749172886
H            6.14647654044618        3.09162461948282        1.10868397286630
H            8.90425912661366        0.05634261460443        2.76314946164318
H            7.92295859173798       -1.76345149523306        4.06163186613669
H            3.20644132225080       -1.22017354839414        7.56647028540077
H           -0.14537976314944        0.00295267122426        6.92821179463577
H            1.17335098107938        1.04833720797246        6.40979476269180
H            0.14298219853128        1.53585678213948        7.75773087118055
H            0.02200719523493       -1.23775192527297        9.15693851716503
H            0.32492186155662        0.28370810739662       10.00302541053503
H            1.46233695563017       -1.06018848032445       10.15214001892768
H            3.25361223787744        1.27851989208320        7.83436903517455
H            3.36679033170234        0.43656067215443        9.37788563817663
H            2.26281299599745        1.79988010961670        9.19790272887321
H            0.67085263644714       -4.74821708073687        6.82180149794465
H            1.94271775083272       -6.68885601672963        5.98712108088708
H            3.54814511987592       -8.17785553401009        6.41952983802672
H            4.58352799246017       -8.49227697732730        3.03317906836091
H            3.17567179925362       -9.39588914765656        3.58126319835653
H            4.64553834616664      -10.25590595803195        3.11226998438387
H            6.64526424744951       -8.31171739665512        4.53351983901805
H            6.73815824514353      -10.07469658776903        4.59097710009875
H            6.66941270349746       -9.13984508557536        6.08511398522304
H            3.21015588841378      -10.54472894582064        5.85439931125471
H            4.63743052122639      -10.42159875062216        6.88050697058628
H            4.68509653676096      -11.40743152404478        5.41912398463288
H            5.12007008464482       -6.43389107528780        7.36755478759051
H            6.56711733386318       -8.09999391682461        8.33124487478580
H            8.04065035799845       -8.92621959770074        9.78645706006374
H            9.53245210480105       -9.77013569179879        9.32624006097646
H            8.21518174152084       -9.62789954893432        8.14621092877332
H            9.92784258402040       -5.62038410051404        7.64039424502900
H           10.52841513040030       -3.79940502803009        7.46832444988683
H           13.39115896825868       -1.85518250083315        8.07480237939797
H           12.53678122329764       -2.96077557623443        6.98077851869030
H           12.09109075331566       -2.87831270285736        8.71603726045237
H            9.55436141703136        0.29193945754009        6.95915587201789
H            7.28958749130248       -0.32277973576942        6.28975518521978
