60
 energy: -11.774262346024 gnorm: 0.000627722916 xtb: 6.5.0 (97a52f5)
C            0.71752490030786       -1.10327047166938        0.06413008083395
O            0.56375095389432       -1.32020300423514       -1.32046113562449
C            1.69686213032002       -1.82338291428252       -1.96675204285150
C            1.60586786520568       -2.06046806748643       -3.34632832918255
C            2.66342120007200       -2.56252372632663       -4.04721391607274
C            3.88738806683087       -2.85205121700730       -3.42183490434528
C            4.00524966017933       -2.60895584349135       -2.03487897519645
C            2.90353576663201       -2.10685897312277       -1.34006068654183
C            5.28971965548177       -2.82795993234193       -1.37690189439139
C            5.53709497816293       -2.36599217833342       -0.08237110581232
C            6.79527267553852       -2.43352485373632        0.50347623403103
O            7.09542294868159       -2.00027001619147        1.79834711750567
C            5.99165247499840       -1.52046941029694        2.53244663089545
C            7.84526082541000       -2.95737515967112       -0.26463750613402
C            7.62217597793278       -3.43848606252773       -1.52003384500690
C            6.34050329386281       -3.44427402567829       -2.09339619825228
C            6.11547869698484       -3.93439093679252       -3.44736858824858
C            4.99664922257118       -3.44541595012935       -4.15125367442748
C            4.98967578679424       -3.52940052620916       -5.56666929603197
C            6.00771362564386       -4.11103147861507       -6.24682439339562
C            7.05759402025216       -4.77075515909174       -5.56258337869209
C            8.06633169712396       -5.44969534454196       -6.27254567107050
C            8.99020694797821       -6.20764401531564       -5.61416316529376
C            8.90236901820572       -6.36867945107465       -4.23604022668031
C            7.93981557430595       -5.71621478963693       -3.49512027507191
C            7.72185268688529       -6.17388551947471       -2.09341960251743
O            6.61402349814284       -6.54554957178407       -1.73452171371718
N            8.82284838337725       -6.19089195032987       -1.25338684467928
C            8.79824721647809       -6.84630273857737        0.07667901970086
C           10.16721924622420       -6.67271940352153        0.74630122810978
C            7.71645127883855       -6.20101349761367        0.94826584183206
C            8.49801565390481       -8.33567504152354       -0.11480269007498
C            7.05610868116711       -4.79240513824953       -4.14316964499829
H            1.51409975131894       -0.37964692691589        0.24306354190117
H            0.93679646480698       -2.04625047177730        0.56693202760348
H           -0.21702556445600       -0.70219807258999        0.45898303064591
H            0.67310805572736       -1.84691782087426       -3.83783407813187
H            2.54138599685928       -2.76365051882008       -5.09570660533855
H            2.98071724395327       -1.94435039183117       -0.28445762660189
H            4.74286848288387       -1.90832121695365        0.47099355437977
H            6.32874333321668       -1.25399533504378        3.53505049971541
H            5.23020066201914       -2.29764349887822        2.61296850289261
H            5.58143678142202       -0.63185645572788        2.05070187760874
H            8.83214858975619       -2.97354557604250        0.16285578266883
H            8.45050986034682       -3.80782444748289       -2.09759291535093
H            4.19119273797914       -3.06975340848257       -6.12006016713481
H            6.00171255412857       -4.12592668187745       -7.32311542674345
H            8.08873585904554       -5.37793683032158       -7.34631231115748
H            9.75418969604649       -6.72931855121954       -6.16688714081110
H            9.55752201164429       -7.06318754079507       -3.73864081098047
H            9.75376741252151       -5.98635201297149       -1.61519813056995
H           10.40400140001163       -5.61670213166231        0.86760787626775
H           10.95302685622875       -7.12665640270094        0.14436902801438
H           10.18305239898419       -7.13928109312463        1.73043588077949
H            7.93084951662046       -5.14683650137155        1.11078043945874
H            7.65172259619485       -6.68775999178923        1.92053393789861
H            6.74464723528398       -6.27299889020429        0.46304525912297
H            9.25277252933345       -8.80024648366664       -0.74730904222885
H            7.53076586737955       -8.46630615969776       -0.59755069324762
H            8.47946706234695       -8.86050021826934        0.83948726074317
