72
 energy: -15.063586622781 gnorm: 0.000734643452 xtb: 6.5.0 (97a52f5)
C            0.96224053081771        1.92035077256884       -0.65240397278949
O            2.36101797082718        1.99250012866629       -0.80368444587741
C            3.08018728156384        2.14866006336059        0.39444726661816
C            2.47857070949379        2.26555477721510        1.66826904342083
C            3.22668513163012        2.41356567675183        2.80651887169047
C            4.61405602837464        2.44790139193459        2.70393020882652
C            5.23411858383837        2.33498775963130        1.45129924150644
C            4.46606305076325        2.18679076883144        0.29954285805444
C            6.65906325350734        2.40532513494397        1.67104911310260
C            7.74271048264734        2.36038854822124        0.79827685414359
C            9.03559755676698        2.44420199318247        1.29915985151636
O           10.08879174138213        2.41304675400021        0.36812560251533
C           11.36723163426956        2.64698313923449        0.91173113257069
C            9.22027394756339        2.55109241050912        2.69574088155155
C            8.15969796087249        2.59600575563752        3.56136413537150
C            6.86436372215419        2.54746331184582        3.05226227634972
N            5.60528586133323        2.62510954769680        3.69163630754350
C            5.31714769988551        2.87908682591307        5.07525064961826
N            4.43063651180005        2.10701647796488        5.66157503405844
C            4.26369581230383        2.33647845441706        6.97888483488827
C            3.34418601365926        1.55160822553211        7.70353935167138
C            3.16493689817467        1.72828110767199        9.04487709818290
C            3.89725381691398        2.69803475182972        9.72776578807299
C            4.79388760980411        3.47900377718624        9.05785053508835
C            5.00354520557379        3.32806787524465        7.67222725276058
N            5.87620455306774        4.14131618664526        7.04514539576708
C            5.99331218701652        3.93275690041487        5.75336791214790
N            6.83862603203632        4.82500782098222        5.01071441887556
C            6.56110032258750        5.48157651051642        3.78962207241999
C            5.40530276420103        5.53190143465639        3.01430366879413
C            5.42797415522291        6.21212830028519        1.82547287313200
C            6.59061603180018        6.87248832923800        1.36879302158046
O            6.67261735042161        7.56826960554704        0.14982061260307
C            5.50455928801186        7.52846091450497       -0.63630101506534
C            7.73285796310678        6.84238592453783        2.15861974173900
C            7.71905928944347        6.15331415380119        3.36801288053448
C            8.73143170059150        5.94385125254083        4.37570153330594
C           10.06085493760497        6.34616354123057        4.47124420077729
C           10.82145332001588        5.96074658856159        5.56851719583942
O           12.15916526402947        6.39252897758686        5.60266733362811
C           12.89418538285731        5.96247830900154        6.72479167368270
C           10.22075016944859        5.16696211899177        6.57219774554712
C            8.91330181849707        4.76636209274285        6.48634647685661
C            8.15917903568962        5.15296845427720        5.38244822885333
H            0.51406145251519        1.78031995268711       -1.63701061904266
H            0.58624434691124        2.84959692897532       -0.22217233017025
H            0.69975042064768        1.07023678737994       -0.02107857555312
H            1.40761822212692        2.23654691687564        1.74985974164992
H            2.77090833334407        2.49189792743183        3.77653654905284
H            4.93503460469192        2.10101172822618       -0.66199025116834
H            7.58779954969876        2.26988571552370       -0.25987772487095
H           12.08988791252325        2.68254346257584        0.09537141242867
H           11.63777720507929        1.83481575063038        1.58781930384771
H           11.37943284037941        3.60349964435781        1.43625647928935
H           10.21759111372269        2.60068634621740        3.09234449888205
H            8.30709274316898        2.68489162487879        4.62230724529122
H            2.78564274179986        0.80161063788332        7.17183028062321
H            2.45745293566622        1.11641363734812        9.57993040803200
H            3.75141007794601        2.83105342412868       10.78712511100618
H            5.35772098143851        4.23274242592144        9.57855256979462
H            4.52074267027084        5.02235494629480        3.35115625730957
H            4.53761077399301        6.23813949044668        1.22470161475755
H            5.69245457924650        8.07164985833228       -1.56345747686938
H            4.68251462052639        8.01031828980017       -0.10521872636314
H            5.25307937025983        6.49454949597114       -0.87708447041391
H            8.62179417500358        7.34357926186504        1.82622572075782
H           10.50657307021204        6.94500958120884        3.70017718134528
H           13.91233192736451        6.34454054772902        6.63914919677079
H           12.92748361287592        4.87243521701146        6.75261298876933
H           12.44449289250569        6.35681304445402        7.63710413646125
H           10.80147218832421        4.86794617738020        7.42529408898811
H            8.45444805620120        4.16618833239985        7.25072364784243
