64
 energy: -13.882234514927 gnorm: 0.000407362386 xtb: 6.5.0 (97a52f5)
C            0.89021796901564       -0.36145201725003        1.82421212226209
O            2.27976621463170       -0.12801675129909        1.84417451533757
C            3.07433050437938       -1.25876475287136        1.58444672578253
C            2.55421295176085       -2.54560346693023        1.31500774123513
C            3.37321766011877       -3.61599960741057        1.06878006720600
C            4.75259407707496       -3.42973338494368        1.08495534004084
C            5.29236089754711       -2.16285873047787        1.34751350712378
C            4.45261786131719       -1.08038824614083        1.59691587417796
C            6.72898600167602       -2.29290766709025        1.30067540790324
C            7.76116226747970       -1.37158524416012        1.48012305512491
C            9.05935590768346       -1.80393784643735        1.35708395773270
C            9.34743165667950       -3.13652804963458        1.04982988790073
C            8.34235810050117       -4.05346273770257        0.87134103904159
C            7.01922873191215       -3.63838416662452        1.01255366274018
N            5.80741716261340       -4.35219441590500        0.91866535678717
C            5.60944574243891       -5.75877911943303        0.70210488358776
N            4.75033396060135       -6.11779830575176       -0.22356589866869
C            4.65467512864865       -7.44816200734519       -0.41933630074255
C            3.75999852967248       -7.93894596568279       -1.39228386044858
C            3.64688789006077       -9.27581187618201       -1.64038534208789
C            4.42387429671092      -10.18890096578775       -0.92863544721492
C            5.29843847851819       -9.75053151446000        0.02246114568152
C            5.43992581776836       -8.37738306195665        0.30951282004775
N            6.29272899046335       -7.99128588349961        1.27963411682826
C            6.34094631306927       -6.69536207258125        1.48536728540890
N            7.16111348189485       -6.22058763431103        2.56570771924538
C            6.81361095113042       -5.32795907539170        3.59940463036049
C            5.60691552919292       -4.69895898983744        3.90129321511524
C            5.55683904380392       -3.84029119367980        4.97042801715381
C            6.68855764588940       -3.60135391381194        5.75496403195587
C            7.88226104233548       -4.22457855343222        5.48267488449172
C            7.94793346838126       -5.10029154593296        4.39861729638977
C            9.02023205571244       -5.90459897260521        3.86326557859059
C           10.35179322380274       -6.06641151346850        4.23715322493473
C           11.17487988191882       -6.91673637376822        3.50842891462875
O           12.51052977796528       -7.03419005125481        3.93233664679438
C           13.30862003967816       -7.89195465454617        3.14952453143306
C           10.63397232670384       -7.60556924233340        2.39850466758299
C            9.32424547022787       -7.45454544880580        2.02561210772520
C            8.50678151661796       -6.59920476205521        2.75898916156393
H            0.37714930061022        0.57621805640749        2.04167840768017
H            0.62428470941819       -1.09378781479004        2.58768990265660
H            0.58485032884697       -0.70973107042746        0.83656383810945
H            1.48972790550171       -2.69109729692055        1.30017415846103
H            2.97832972080523       -4.59264351381847        0.85581469617481
H            4.86107630018900       -0.10923477610182        1.80160406082737
H            7.53123140184588       -0.34645545906808        1.71057080708909
H            9.86806448834202       -1.10559365231785        1.49575465447902
H           10.37443422709775       -3.44883638320338        0.95602284716438
H            8.55448511456505       -5.08167323478579        0.64175303211588
H            3.16540587015581       -7.22957157238237       -1.94046203654536
H            2.95662551960733       -9.62936600347178       -2.38857935164748
H            4.32974942757434      -11.24330940159300       -1.13010964505118
H            5.89612116916896      -10.45099782361383        0.57863411331211
H            4.74410504388687       -4.88279087051514        3.28738084976772
H            4.63250200622364       -3.33973524608760        5.20737940951564
H            6.62180249991514       -2.92029998239731        6.58722303604846
H            8.75622016363090       -4.04956167591096        6.08471450655688
H           10.74972665057496       -5.53552503227569        5.08077102405918
H           14.31852353067866       -7.89960836132956        3.56170130628480
H           13.35009851237716       -7.52798903668999        2.12199164050154
H           12.90772002197685       -8.90597580577341        3.18098106498581
H           11.26352060103981       -8.26607669263595        1.83115609936630
H            8.91171691845489       -7.98313756750380        1.18565528736139
