35
 energy: -7.226966327545 gnorm: 0.000373208996 xtb: 6.5.0 (97a52f5)
C            1.13067717873806       -0.29240415449318       -0.48461936865086
O            2.24795598137393        0.17671064705535        0.23673263411360
C            2.82548756517642       -0.76168617574955        1.10241779553059
C            2.36774434687882       -2.08932324034877        1.25641771589923
C            2.97879816188313       -2.94935189605502        2.11978783005669
C            4.08322973108154       -2.53798439748914        2.88318318199628
C            4.56326355545077       -1.21530519480993        2.74970343808713
C            3.91597770620482       -0.35419824804303        1.85323662179022
C            5.68320503454594       -0.78375244372294        3.52548458574474
C            6.32623808228993       -1.60045186891960        4.41238622317298
C            7.48500677811645       -1.10746483100496        5.20267820392495
C            5.84922539698015       -2.93632817713842        4.55567401020946
C            6.27696447256020       -4.03799017773843        5.38170499238185
C            7.29858511842591       -4.19452502217556        6.32810096414456
C            7.44228946430360       -5.40612995971441        6.95533271533154
C            6.58926488796228       -6.47803064293338        6.66467651207227
C            5.58268850275184       -6.34941437573687        5.74310665444884
C            5.42077521246141       -5.12184867904366        5.09396148091930
N            4.50238313627503       -4.71645438765831        4.13302115427771
C            4.75435797847682       -3.39588725290654        3.80560681812576
H            0.75651263892972        0.51595585513306       -1.11429228570573
H            0.34102749633722       -0.59458921702572        0.20478527145191
H            1.42113595088462       -1.12902131756089       -1.12160837350762
H            1.52340724234919       -2.42809641540935        0.68437443472063
H            2.61825797887995       -3.95695760610544        2.22753461382068
H            4.26855800848664        0.65376515705839        1.73842401895855
H            6.02644090038148        0.22754300688926        3.40249664550899
H            7.71699623083981       -0.06920705395712        4.96263818497527
H            8.37689823109686       -1.69972973241100        4.99566953838089
H            7.27633554533167       -1.15894912325476        6.27177400068044
H            7.95582746258034       -3.37563681245398        6.55658702469453
H            8.22438439493800       -5.53717856493453        7.68500207797234
H            6.72735826510037       -7.41741844622143        7.17436671100823
H            4.92253647691802       -7.16644156998751        5.51260415644950
H            3.76625488500988       -5.30258768113176        3.74448981701481
