42
 energy: -7.964507805091 gnorm: 0.000590894458 xtb: 6.5.0 (97a52f5)
C            1.49901090244140       -0.00848175831830       -0.70458856654321
O            2.46865570720095        0.31331879675213        0.26408208624397
C            3.12479092249898       -0.78429914305893        0.83259512004929
C            4.10483837319869       -0.50598439107625        1.80862428293176
C            4.80475148502336       -1.50357437757521        2.42934395859480
C            4.54054770946663       -2.82951327492436        2.08582014340816
C            3.57507012679484       -3.12550325057697        1.12163786605835
C            2.87135683194906       -2.11337828950885        0.49847014860717
S            3.47075616559637       -4.86572003171794        0.90617827351040
C            4.73033211857742       -5.16094087648374        2.12250062472703
N            5.13375849065504       -3.99070250271821        2.59392322532613
B            6.24832743403229       -3.90902687021358        3.63096165153403
F            7.34173188561363       -3.31335109505513        3.03903330134826
F            5.80028021001736       -3.15758793577007        4.69634632280280
O            6.56843790727815       -5.27151045904885        4.05157009989745
C            6.06668536620329       -6.37904550534764        3.43211945006592
C            6.58390464869891       -7.65910287241764        3.89802260553004
C            6.15861579542974       -8.85908176121548        3.32895636517735
C            6.64668637526745      -10.05944000374230        3.77544813996957
C            7.58224535172261      -10.11580957938665        4.81564748415549
N            8.07987081649184      -11.34676993552258        5.27917561874315
C            7.74804217739623      -12.60782263353262        4.61535935195459
C            8.93160242498375      -11.43022435261442        6.46630642051549
C            8.00548755366151       -8.90696312623722        5.38120488331583
C            7.51784657059822       -7.70766774705227        4.93116688510205
N            5.17343275720661       -6.38394166688763        2.47856329175305
H            1.06176520244205        0.92118376778262       -1.07207691048340
H            0.71398697626136       -0.61766308626914       -0.25373390063040
H            1.96869199007375       -0.53443975603349       -1.53725604884575
H            4.28826530018739        0.52443458028185        2.05704117379648
H            5.54789852062650       -1.29361491134096        3.17833448389064
H            2.13458384593051       -2.37035708233525       -0.23826939662027
H            5.43660223973303       -8.82470973212326        2.53186373553624
H            6.29784660384065      -10.97255644502496        3.32769439493980
H            7.95899622230653      -12.53377361113393        3.55062207161448
H            6.69449715273366      -12.83767289830156        4.75949592815330
H            8.33852620252866      -13.42732030203749        5.01852970686792
H            8.46250080899875      -10.90749950897919        7.29721148953011
H            9.90170771185647      -10.98328905301988        6.25965469734396
H            9.08542478318633      -12.46470669880514        6.76450222921860
H            8.73123267752963       -8.91930911780290        6.17437063439854
H            7.84798765376074       -6.78108150160612        5.36905667651353
