43
 energy: -8.359035455582 gnorm: 0.000613042476 xtb: 6.5.0 (97a52f5)
C            1.60771060933087       -0.37090269755758       -0.28904477238963
O            2.68261253077919        0.53135608729256       -0.41406888676608
C            3.25326201786658        0.93903017425170        0.80144763577651
C            4.35243991461445        1.82622245776816        0.72627566220805
C            4.98935435398665        2.29121505061488        1.84634194397862
C            4.53470148422658        1.87533723743689        3.09716224018407
C            4.97868613901639        2.16844339410523        4.43344341347731
C            6.01563214333145        2.99593291279109        4.89109173920530
O            6.80010700899741        3.75445647144218        3.98706769544197
C            6.29303256959913        5.05997697817565        3.78187362356714
C            6.23246255915750        3.05036874240155        6.29499123076035
C            7.28306955309642        3.82411248269209        6.82757754399672
C            7.50110759308906        3.87926946196625        8.17135202888463
C            6.68218724614734        3.16048421272779        9.05312943654216
C            5.65762156817529        2.39912550509806        8.57727669677842
C            5.39519462531096        2.31834777261159        7.19419193543530
C            4.32340537954301        1.52335121220582        6.70894688292485
O            3.44461320481465        0.84916222826639        7.59345591360179
C            2.37130952264784        1.66779917077894        8.01272662165433
C            4.15152482692841        1.44874872839856        5.31994925790140
N            3.21809721381109        0.72624538260738        4.55422527757222
C            2.21576765954437       -0.18886525383630        5.07994435569745
C            3.44708768287608        0.98828198115914        3.19590073938565
C            2.80615300401748        0.52447945870409        2.05103760983185
H            1.25250793537135       -0.62994730415517       -1.28744527995056
H            0.79210701486779        0.09563850297231        0.26521977204595
H            1.94073252102667       -1.27992165353488        0.21388482737354
H            4.68376845145536        2.13098997193836       -0.25038364580316
H            5.83102227034980        2.95725808502033        1.78243662960465
H            5.29330060554165        5.00018536492437        3.35021377445955
H            6.95261147472808        5.59559862776044        3.09839754809082
H            6.24627768076622        5.59223503113941        4.73244325434920
H            7.91989210094823        4.36352193232442        6.14828860762369
H            8.31003928599120        4.47438715267694        8.56182267628298
H            6.86984181481118        3.20889723972322       10.11306536069204
H            5.03825373794215        1.83427910263889        9.25196533653615
H            2.75277009132562        2.51291158656262        8.58690413836219
H            1.69819327465078        1.07908821544245        8.63714821170901
H            1.82989851460885        2.03570461471856        7.14019790455529
H            2.47082908155500       -0.47298031824031        6.09848400182309
H            2.17200413039444       -1.08840478260288        4.46970034499243
H            1.23864966983804        0.28927372372208        5.07852835288962
H            1.97329993291744       -0.14331424513028        2.15052235871357
