30
 energy: -5.796337052606 gnorm: 0.000716790509 xtb: 6.5.0 (97a52f5)
C            1.10044928062026       -0.02988193037839        0.09939656086199
O            2.35304136425926        0.55841634944215       -0.16679894758640
C            3.06431399171102        0.97006868200381        0.97197486549029
C            4.34653359524628        1.54209555414512        0.75241066360125
C            5.13834522207581        1.97222290181882        1.77716714601031
C            4.66165464732574        1.84713905325498        3.09400367479567
C            5.21743920328456        2.16958962474179        4.36295212520933
C            4.29580861488913        1.81548288903298        5.32179419564409
N            3.17528987417820        1.27419450052714        4.70236870663968
C            3.38792899632725        1.28648688892080        3.33236702984873
C            2.59362940298500        0.84837482262503        2.26952306167174
C            4.58958007239098        1.99318274666478        6.73079351092793
C            3.68743301718927        1.36418861481326        7.72589600664857
N            5.62159014876452        2.65652635253850        7.12984816504590
C            6.39906485641869        3.36630623074574        6.18170866816631
C            6.52079175381980        2.75369301709547        4.76935704652390
H            0.64757566698332       -0.32921965008419       -0.84674904684770
H            0.44651316547526        0.69174109256611        0.59095585319002
H            1.22928294210642       -0.91528889059094        0.72357113817430
H            4.68720122328993        1.62447158110903       -0.26433641262961
H            6.11019217375147        2.39654004837286        1.59764669183219
H            2.34867490239701        0.90653380206610        5.17066457420092
H            1.63008861297740        0.42694022889011        2.47818526555309
H            3.50086315737712        0.31913869788840        7.47782219584126
H            2.72983384175619        1.88373709008647        7.76331116666233
H            4.13007048518437        1.40072851793863        8.72101146123970
H            7.39762386745825        3.50848065180802        6.61681785196196
H            5.96800203837423        4.37252223516078        6.10291007562406
H            7.28783802658535        1.97144302969548        4.75820151276636
H            6.83386585479819        3.50647526710183        4.03590519293168
