55
 energy: -11.084372881554 gnorm: 0.000733357513 xtb: 6.5.0 (97a52f5)
C            1.51366718338488       -0.49726842724861       -0.78687513967560
O            2.65710529444248       -0.16626201458447       -0.03109355290120
C            3.12958711930115       -1.19140678095423        0.79535173298609
C            2.52062465524113       -2.45070301684559        0.93075809004687
C            3.05691862996712       -3.40137549706649        1.74743002134031
C            4.24022071726961       -3.17402488789815        2.47253648457551
C            4.84515585414596       -4.17242098118693        3.32124113671025
C            5.89428374846472       -3.84986090643931        4.15030490701173
C            6.48531060096347       -2.54802795762540        4.14160101523280
C            7.56099581068044       -2.19417031217339        4.98119248103795
C            8.12164219105951       -0.95400762425277        4.94057082044471
C            7.64238729464003        0.02600765721333        4.05173787431007
O            8.15873734689833        1.31993576359171        3.94533277513196
C            9.21131031698008        1.61080480713581        4.83764129937259
C            6.57970404478693       -0.31244712567259        3.22558502367898
C            5.97972978417172       -1.57390807325307        3.24468785670793
C            4.83412896888941       -1.89071756189857        2.40199641722407
C            4.26862344501208       -0.94048416894712        1.54594369831763
C            6.24830094866891       -5.06769536864421        5.01533679367228
C            7.69682089466965       -5.51834444285285        4.75528895799641
C            5.98466662688014       -4.75916578203540        6.49939818430370
C            5.27640111382358       -6.13717288149189        4.51090337644368
C            4.51267870468543       -5.59652332780087        3.49260634217496
C            3.63093144907966       -6.42103194422947        2.75883164178334
C            3.47957407937652       -7.72834235182266        3.09877053888000
C            4.20506864181025       -8.29713311803158        4.17396591016506
C            4.03722452427066       -9.65199734411289        4.53484141699650
C            4.75493329286460      -10.19533494577436        5.55704202905209
C            5.67734938038321       -9.41551990250467        6.26281214186938
C            5.86642582301645       -8.10544889464088        5.94072723455733
C            5.13491438038290       -7.49984880828716        4.89100141436027
H            1.25267420927257        0.35333119249130       -1.41739061907887
H            0.67584776949729       -0.71286410635838       -0.12250967943481
H            1.72322472091268       -1.35665505584745       -1.42483411602863
H            1.61332269319168       -2.66266881391332        0.39481240478623
H            2.52426029268866       -4.32165138351857        1.88302615834531
H            7.94866127565378       -2.91431696076497        5.67654121190697
H            8.94105366770711       -0.72119145389561        5.59599005394208
H            9.52529512435791        2.64404008419824        4.68351761214284
H           10.05952048761296        0.95298336439607        4.64293137656611
H            8.86984130629492        1.49716212215462        5.86762426812528
H            6.22263946969778        0.44935037461692        2.56129807517059
H            4.70472593114516        0.03423993724663        1.45131521036454
H            8.41977932061677       -4.76784637224878        5.06489403238421
H            7.84760476799587       -5.70646342273504        3.69288625748972
H            7.93066640272617       -6.43653656887297        5.28957993980683
H            6.61913452455735       -3.95344298628661        6.86140760900055
H            6.16557067110977       -5.62618004989650        7.13014156891540
H            4.94850639508311       -4.45462761438989        6.64250042775493
H            3.12667187835582       -6.04348422073948        1.89048748106295
H            2.81027443070082       -8.35802204570308        2.53808510679094
H            3.33081657027020      -10.25249840551820        3.98793192985164
H            4.61650353076187      -11.23038583240340        5.82338440116099
H            6.24151165448954       -9.85899257809567        7.06704392137117
H            6.58102003909427       -7.52610298357624        6.49455644379755
