59
 energy: -11.879983228039 gnorm: 0.000630054794 xtb: 6.5.0 (97a52f5)
C            0.30166882141015        1.62809319371691       -0.48081829488056
O            1.53139125638866        2.30930012990803       -0.58355715032894
C            2.35222249485615        2.21013595543252        0.54523720194089
C            2.00928397477340        1.52492071004357        1.72335619619149
C            2.87681842403592        1.46495310880083        2.77338723016673
C            4.14632727938483        2.06675127811994        2.72081601101560
C            5.09315718787852        1.99278531143504        3.80693065622195
C            6.25574276325724        2.73318005301605        3.78028157386448
C            6.60967807779229        3.53193325549302        2.64957676804105
C            7.79393090287065        4.29472584492028        2.59971363189733
C            8.13566015513378        5.01166796184876        1.49365778656802
C            7.30984788727543        5.01715090980977        0.35410160410312
O            7.59121724853075        5.71206825337882       -0.82515345628407
C            8.82587737860654        6.39359645283288       -0.82872549145196
C            6.13206379770337        4.28396537996786        0.40264080133212
C            5.75013554334302        3.54156472471083        1.52263843548187
C            4.49141482196527        2.80878169748705        1.56563821030317
C            3.58481428548891        2.84481653591909        0.50169647942764
C            7.03135277607762        2.52078436681010        5.08875246162653
C            8.41776240304766        1.90576324222513        4.83410520362053
C            7.12666231655271        3.82004213153650        5.90397113364862
C            6.16175215383303        1.51164863708923        5.82985729332354
C            6.38280452613250        0.89962261484705        7.04398486355962
C            5.49649979804219       -0.07566943731234        7.50321399177266
C            5.72304820544210       -0.75494053798437        8.79865566878052
C            7.01019214295010       -1.09824600612039        9.21157472985465
C            7.21932069922255       -1.73739722945458       10.41431838876304
C            6.14938046938273       -2.04699374288898       11.22957955973311
C            4.86790769753700       -1.71431699052403       10.83886623208112
C            4.65531365095397       -1.07531203455200        9.63659244663853
C            4.40675823571994       -0.41828277825527        6.69651701122463
C            4.18513813129320        0.19313647150459        5.48256657076652
C            5.05228076321620        1.19231464485350        5.04303955834976
H           -0.24459466950447        1.74916802579163       -1.41694296666848
H           -0.29262762051606        2.05048164853491        0.33020687277749
H            0.47579390898951        0.56493332610783       -0.31036351343236
H            1.04727485496347        1.05207590511838        1.80289350069499
H            2.55674170791156        0.99069757399297        3.67985963307499
H            8.44318658234186        4.31812908916724        3.45452345084360
H            9.04756630136436        5.58054758873358        1.49176375668445
H            8.95816288735018        6.87451658789645       -1.79892281204775
H            9.64263794711849        5.68762905278445       -0.67223207455041
H            8.83202555748313        7.16060481823026       -0.05322122462862
H            5.51290348327038        4.30550865392062       -0.47223315727589
H            3.81992159330051        3.38317151516885       -0.39501243162654
H            9.07022145698807        2.57987787454560        4.28445428058687
H            8.32453517557527        0.98611638589700        4.25773187695857
H            8.91020997053308        1.66259384400856        5.77471368584651
H            7.70531639160316        4.58182698628466        5.38617932084030
H            7.60129542037309        3.63743042408665        6.86715709877584
H            6.13264831888736        4.22461832117964        6.09110405880421
H            7.23661427748229        1.17468365261673        7.63534315251944
H            7.84452291082895       -0.87166932574132        8.57055220888567
H            8.22000108119781       -1.99894524994353       10.71781370160165
H            6.31391171915085       -2.54785069216603       12.16975869278012
H            4.03224032707500       -1.95420537643829       11.47590183940292
H            3.65642094848081       -0.80616769520943        9.33949482478537
H            3.74400463366847       -1.19893578052915        7.02797112292650
H            3.37874856398381       -0.14762126266590        4.86274179411061
