55
 energy: -11.082420571037 gnorm: 0.000531807496 xtb: 6.5.0 (97a52f5)
C            0.76602230233571        1.38133924414167       -0.51467890450180
O            1.85419119051018        0.84320458889427       -1.23202971468189
C            2.86879744041187        1.75899922428310       -1.52963395632200
C            2.87750293569745        3.10189559154690       -1.11253287639554
C            3.88972554822877        3.93795601888102       -1.47914576603398
C            4.94052898831259        3.50519194153765       -2.30703167844144
C            6.00432885534564        4.38206382310746       -2.73655946538167
C            7.18721571910351        3.85750426882387       -3.21606449630629
C            7.32383630103685        2.46453099844527       -3.50325875841454
C            8.50820243864256        1.91045030891011       -4.02953917637018
C            8.60256549308060        0.58683079928017       -4.33453001791605
C            7.51278284707017       -0.28066082577463       -4.13088711283908
O            7.52385578381362       -1.64813686808178       -4.41633695321993
C            8.74388036477476       -2.13460405064013       -4.93012976665957
C            6.34609568631309        0.25521198399698       -3.60206036744499
C            6.21752829086049        1.60645344458544       -3.27422438519496
C            5.01454236944249        2.13129989743882       -2.63950180859439
C            3.95176077718742        1.30189590605848       -2.26786752500257
C            8.23487328577725        4.97613689027348       -3.29291070697592
C            9.40412329399251        4.71724280732828       -2.33038016107637
C            8.72347354861384        5.19911477784272       -4.73392844261068
C            7.44193729270049        6.19945646320233       -2.83708588072935
C            7.87756300711446        7.52117808259502       -2.70508470606697
C            6.97348963382325        8.50149237873252       -2.41558805332678
C            5.58849192830059        8.21569357900609       -2.33376834748778
C            4.63900403172290        9.24677108243720       -2.14642316415040
C            3.30359103351126        8.98421215697100       -2.20362173240341
C            2.85237062974541        7.68974115912439       -2.47899988521811
C            3.74105912178533        6.66869687269602       -2.64323766083810
C            5.13054417831033        6.88220395063208       -2.51062432966816
C            6.11576362684088        5.84761255111555       -2.65168612105846
H            0.01581423026973        0.60113978492778       -0.37968655906725
H            0.31983298485626        2.20489684156978       -1.07380837635948
H            1.09811436535292        1.72345272339997        0.46622693438276
H            2.08459830653911        3.47111431725981       -0.48791139520532
H            3.91961213888197        4.93650520991451       -1.08115125793408
H            9.35963443395925        2.54393681943192       -4.19288372648747
H            9.52113493423206        0.20019665116910       -4.73698711422697
H            8.64647232372567       -3.20669661632418       -5.10665710347403
H            9.54579429859409       -1.96872520844317       -4.20918888854799
H            8.97423569675951       -1.64216090147424       -5.87594318463651
H            5.52983536431691       -0.42171004986930       -3.44405609053338
H            3.95192042924629        0.26438349163968       -2.53788270189775
H            9.96133058946379        3.82410781682815       -2.60542308574418
H            9.03715432470104        4.58316838700192       -1.31353271155626
H           10.09811104553478        5.55666133496923       -2.32940463823796
H            9.27437453313392        4.34334840667027       -5.11640192448959
H            9.38018440326580        6.06646803058900       -4.78745110059805
H            7.87832464765187        5.37784905404390       -5.39769191516937
H            8.92117964562649        7.75119626561467       -2.83058496632691
H            7.30014762709543        9.52033025011406       -2.30022929711391
H            4.98722847288290       10.25109439563015       -1.97681597170165
H            2.59023613295487        9.78054685498227       -2.06741287300818
H            1.79488389020839        7.50417207222715       -2.57358751761059
H            3.38617723633634        5.69746502074172       -2.93747261312605
