46
 energy: -8.970885391571 gnorm: 0.000766979471 xtb: 6.5.0 (97a52f5)
C            1.13600273008618       -0.12466195901564       -0.53431375117539
O            2.30731264701526       -0.52521348397704        0.14061391461178
C            3.04363801333322       -1.52454320351615       -0.50545604763666
C            2.68561330081949       -2.11263612550616       -1.73106806422470
C            3.46297106167215       -3.08197751255308       -2.29152888550698
C            4.64314200475123       -3.52785200278628       -1.67503643773631
C            5.47570310957081       -4.54944337647685       -2.25022222932273
C            6.62227455580026       -4.97629125845378       -1.61940543158110
C            7.03654893349314       -4.41663304970146       -0.37043177050101
C            8.20570010527416       -4.83380334825964        0.29431175156693
C            8.58716489283586       -4.28270206099646        1.48026419401415
C            7.81895620772595       -3.27171791378153        2.08533425808366
O            8.13816918228260       -2.65071465714757        3.29772108803424
C            9.32769194258153       -3.10786995371849        3.90101266380647
C            6.66378293056038       -2.85807200575152        1.43838216065798
C            6.24369730175513       -3.40215992295408        0.22140149165863
C            5.02524120822878       -2.95368126808603       -0.44016249263758
C            4.20710679098048       -1.96221756140661        0.11015283465118
C            7.28784936373491       -6.07927954218027       -2.46282983868643
C            8.68359090583771       -5.66292438721158       -2.95173565292915
C            7.32265264890882       -7.42242332625002       -1.71804522916036
C            6.34753444242129       -6.18345338571432       -3.65145575806449
S            6.20831762277568       -7.08125055685287       -5.12807425902311
C            4.74475168877402       -6.24765449531063       -5.55183852989426
C            4.39138472296945       -5.34372811074075       -4.61441210656780
C            5.31378484619871       -5.30255208243875       -3.51097398394220
H            0.64580673848851        0.65467058262376        0.05074549434623
H            0.45447747705416       -0.97086271167936       -0.63424487932847
H            1.38964256282146        0.27923403077230       -1.51571145244973
H            1.78900400344500       -1.79612894806539       -2.23206881327338
H            3.16472258040906       -3.51825973087233       -3.22447784736220
H            8.81299386673602       -5.60465316259676       -0.14155849941589
H            9.48684996671662       -4.62510248264119        1.95822253525210
H            9.47936334704713       -2.56055039460236        4.83236708546614
H           10.17618927851756       -2.92161582880361        3.24107734333868
H            9.24666218688829       -4.17187058698409        4.12759474146668
H            6.09237483080450       -2.08649701963029        1.91529801279761
H            4.46220658418532       -1.50342277118907        1.04484886317802
H            9.38825280601353       -5.55770785564609       -2.12999274836845
H            8.63390120212737       -4.70941044553364       -3.47613240729684
H            9.08330071843986       -6.40458960970097       -3.64232052588945
H            7.96920734133615       -7.38534796427772       -0.84409322540347
H            7.68764794568797       -8.21369913419416       -2.37175074444623
H            6.32284514398446       -7.69785192874472       -1.38451820638283
H            4.20316135463812       -6.44258445797939       -6.45816785193503
H            3.51554690427067       -4.72331302946732       -4.70072076278847
