61
 energy: -12.994571437531 gnorm: 0.000394733992 xtb: 6.5.0 (97a52f5)
C            1.67070155909872        1.26443211075695       -4.19694804423295
O            2.72447755985904        0.99552597286046       -3.29927817169887
C            3.37497277624954        2.13035560224960       -2.80207821245144
C            3.05070810326944        3.45270722131904       -3.15023577802154
C            3.73956984078084        4.50335273570904       -2.62083124274880
C            4.80119042857297        4.31486045350621       -1.71954181998785
C            5.54675211746686        5.41106502174012       -1.14917534702202
C            6.48090606883662        5.17319710619109       -0.16761904108602
C            6.81224899489249        3.85902036719251        0.26869473362501
C            7.78675133221826        3.62641306536198        1.25614713676224
C            8.12029727740735        2.36423222502421        1.63997255099752
C            7.49395047243830        1.24671334958130        1.05469740309738
O            7.78198409848336       -0.08219320334946        1.37868633846469
C            8.80314018016554       -0.24845856168133        2.33675320256201
C            6.52293941672515        1.47345890555511        0.08744660991471
C            6.15720979913676        2.75654310682099       -0.32667044388155
C            5.12184714901088        2.99124391606526       -1.32558178734540
C            4.40320097542548        1.93464173472734       -1.89237933359229
C            7.05200282037702        6.49832122501537        0.33217119865186
C            8.57647722224026        6.57783082180116        0.24327734980501
C            9.41504444494748        6.42235521256463       -0.84002935804173
C           10.77936874353699        6.54393328266769       -0.65010719941416
C           11.29727432975652        6.81748703819422        0.60617285568440
C           10.46302290660783        6.97561265171579        1.69472081163560
C            9.09318130680422        6.85745198596785        1.51054965799689
C            7.98708818685841        6.95779432346969        2.47688236840478
C            8.00215416922866        7.19829564164333        3.84316569375616
C            6.80368695362230        7.22391486958936        4.52822610142814
C            5.60428815795155        7.01128338343877        3.86680235106576
C            5.58260083140915        6.76891731681866        2.50565432961767
C            6.77608010253651        6.74277163302346        1.81581463075097
C            6.36924909638914        7.52424252218707       -0.55498398885891
C            6.54234895009658        8.89111253424470       -0.60090779379118
C            5.84994210568471        9.61949728473919       -1.54804188888688
C            5.01046747781024        8.97919459748303       -2.44349547795383
C            4.83757069195222        7.61018117685347       -2.39976042890517
C            5.50499956677059        6.86230457525878       -1.43204811210397
H            1.23302207620659        0.31787090674002       -4.51682028408625
H            2.05152711535775        1.78977755867710       -5.07381824642233
H            0.90082168625649        1.85769724887293       -3.70156377622676
H            2.24339297304021        3.63932841105811       -3.83486232269758
H            3.43019355698866        5.49898352794339       -2.86826922038645
H            8.27602811350970        4.47040744381366        1.70600720235506
H            8.87092409650694        2.22041709028768        2.39553711188100
H            8.96083395651157       -1.31563438275299        2.49849798092266
H            8.50751051078475        0.21006275368258        3.28132453377944
H            9.73199177041687        0.19279595885602        1.97249680386866
H            6.05699791436395        0.60971547565009       -0.34406707562199
H            4.62508169134790        0.92098922945867       -1.62269599574844
H            9.00097836028160        6.20933359625089       -1.80989666773871
H           11.44612014418733        6.42454103772855       -1.48818247977751
H           12.36343587219869        6.90689821546407        0.73533326732785
H           10.85733408318583        7.18478247086562        2.67340259906264
H            8.93716833170936        7.35942260525731        4.34990011719087
H            6.80112920059020        7.41132074795384        5.58945286673302
H            4.67867942480248        7.03448924956293        4.41808581325222
H            4.65855219013782        6.60002321473109        1.98113031313524
H            7.21603454975085        9.36780097576846        0.08944544244450
H            5.97448413407190       10.68867584805547       -1.59799962443309
H            4.49180839736349        9.55718314351076       -3.19091274532128
H            4.22458363572184        7.13448446626674       -3.14022746771174
