29
 energy: -5.941503237604 gnorm: 0.000464283629 xtb: 6.5.0 (97a52f5)
C            1.71124861696687        0.30162572110117       -0.83473934684580
O            1.54615232908581        0.00717559093630        0.53352622061317
C            2.43730437136432        0.63620278108430        1.38265840975569
C            3.45797517010340        1.49192193343288        0.97726990397985
C            4.30535113867905        2.08592708311899        1.89164572275621
C            4.17796605758661        1.85791740240931        3.24694311893232
C            3.15824777183545        0.99445209571430        3.71249777179663
C            2.99885595751741        0.73613500140068        5.09600169180099
C            2.00040003193489       -0.11004717043048        5.51663098939458
C            1.14557508651714       -0.71530434195810        4.60184258808947
C            1.28514148488476       -0.47619035288091        3.26216113796439
C            2.28746129878625        0.37902066094557        2.78695436579315
C            3.89973494916643        1.37291927445880        6.06346441962165
O            3.78333466304246        1.17084563085006        7.25912165576774
N            4.89636864926895        2.22239555474723        5.56357301588672
C            5.80249711521525        2.83191289753490        6.50599139397346
C            5.08569238910361        2.49340560351184        4.20016124186795
O            5.97723931369666        3.23570843165898        3.82350166126596
H            0.94702123565175       -0.24091262702648       -1.39349255261327
H            2.69673311817301       -0.02678663682160       -1.16841097138568
H            1.57969053414590        1.37212554405607       -1.00013022491615
H            3.59477004951304        1.69726060227670       -0.06845147240238
H            5.08891113499252        2.74505664604067        1.55783494222074
H            1.89234127484733       -0.29594675783680        6.57169240284805
H            0.36995774679653       -1.37625087952820        4.95223679398738
H            0.62734016086582       -0.94083892188737        2.54779841400947
H            5.30501488523268        2.95472021634717        7.46681340863884
H            6.11900489304643        3.80485030469222        6.13331995557029
H            6.67680857197775        2.19689871205221        6.63435334162740
