32
 energy: -6.820776018113 gnorm: 0.000830399062 xtb: 6.5.0 (97a52f5)
C            0.94824173947243       -0.05283928096839       -0.38271851568392
O            2.30823702847759        0.02926667789579        0.02316083138446
C            3.13181878692668        0.83522467576727       -0.77651576641579
C            4.30722921080399        0.28311762161016       -1.27891066178809
C            5.14043623732463        0.98594398035492       -2.11999334451327
C            4.86160861637580        2.29138570532175       -2.50860305362887
C            3.69111953896069        2.91323588919217       -1.98374528777400
C            3.37430886959467        4.25927617719775       -2.30833472624997
C            2.26640453203592        4.85598253061689       -1.75216654966265
C            1.45621920411109        4.16707026186904       -0.86171147537585
C            1.73848807817773        2.86854067280456       -0.53802518412555
C            2.83447532265916        2.20238669259061       -1.10410857425230
C            4.22847943817308        5.02602609590381       -3.22072292688084
O            3.95233618971216        6.17368660645448       -3.52632807523972
C            5.42829419160167        4.36732715899583       -3.75217269526510
C            6.26454499934151        5.07722541729475       -4.60387496527062
C            7.39631713372804        4.50135053281422       -5.12562094296626
C            7.71081955444633        3.19485412268918       -4.80190142090400
C            6.89713998530713        2.47536375849777       -3.96076792637461
C            5.73857259861781        3.03642735248922       -3.41068556658590
H            0.69518495848567       -1.10212393504306       -0.53912644578794
H            0.79055525618460        0.49088067848896       -1.31446184091206
H            0.30731659275924        0.34943531984126        0.40168212159892
H            4.53903360869319       -0.73231752535827       -1.01063417098444
H            6.02676790043778        0.49994633322607       -2.48360332037497
H            2.04707392964757        5.87788601056689       -2.00983329557701
H            0.60704442990628        4.66131353369730       -0.41904797755040
H            1.13260956860821        2.35795606704236        0.18791585986480
H            6.00605798296863        6.09353299362471       -4.84758295043726
H            8.03664137675484        5.06488044469925       -5.78414731019077
H            8.59812455476610        2.74068485742641       -5.21170960637300
H            7.16361858493981        1.46088257239544       -3.72861423570299
