46
 energy: -9.434504428154 gnorm: 0.000743019796 xtb: 6.5.0 (97a52f5)
C            1.29073193624394        0.13213706471939        0.51546470930360
O            2.26952725926625       -0.11017292462692       -0.46766957835116
C            2.97734262985027        1.02054177335692       -0.88678333390766
C            2.76744346530489        2.31856803113652       -0.40738456256485
C            3.51004130205123        3.36445476957518       -0.87917717636119
C            4.50486934114837        3.18998278472839       -1.85328003034591
C            5.29587131315580        4.30844163431857       -2.34918745014559
C            5.09607084857758        5.61535074456270       -1.88006339042306
C            5.83834601430779        6.66462404937013       -2.34173339093831
C            6.83395467857440        6.47504621789576       -3.30648264688330
O            7.54964407387750        7.60101888254933       -3.72560161202957
C            8.53734590968975        7.35339335096892       -4.69939900709245
C            7.03942987742697        5.18479952705930       -3.77739019450292
C            6.29550426956965        4.09359345027790       -3.32537313909652
C            6.53113354529768        2.74738014248510       -3.84390435141520
C            7.50276941713955        2.49664360544309       -4.80877467222465
C            7.73967430213906        1.22680476224059       -5.32205960598225
C            8.74451660597199        0.96324313285858       -6.31961265295691
C            9.60145232711610        2.05814482130142       -6.85404658522204
C            8.89169550501993       -0.29791979802725       -6.76187038982027
C            8.08192996820835       -1.39670139108473       -6.27272161981727
O            8.27196795509252       -2.51466330413511       -6.73281327329526
O            7.12718347107107       -1.14838222463427       -5.31004283212103
C            6.96409296338671        0.14911984890699       -4.84954770268355
C            5.99534199879608        0.39445411912795       -3.88331596288471
C            5.75641828956621        1.66091896099340       -3.36529394017821
C            4.73115123671583        1.88777032644532       -2.35030303116204
C            3.95998384914027        0.83891745317057       -1.85082510124662
H            0.81156408409316       -0.81564228850986        0.76538848401279
H            0.53769194556034        0.81901652637771        0.12636971275197
H            1.75932339191938        0.53989947282201        1.41238395940091
H            2.01540184210442        2.49590479987177        0.33960436318392
H            3.31717191120926        4.34436377289045       -0.48384221847335
H            4.34344932831855        5.80988825237183       -1.13919338910441
H            5.67312120178302        7.66147021062052       -1.97246614485203
H            9.02211698710299        8.29909620096499       -4.94557752086981
H            8.07641817279828        6.94667562815726       -5.60078199765628
H            9.28529766690898        6.66499058191763       -4.30319644402601
H            7.80006354017775        5.03388426395027       -4.51503629830330
H            8.09977729103112        3.30376345668115       -5.18336389511057
H           10.16250363953496        2.53997775255965       -6.05245808980923
H            8.99829694169245        2.81571469761481       -7.35569707817842
H           10.32433041283068        1.68013641584860       -7.57788660007222
H            9.63128562643056       -0.52407519301577       -7.50655426479259
H            5.42749547906767       -0.45142591545052       -3.54996270890188
H            4.10368618373353       -0.16288844665513       -2.20411734484844
