48
 energy: -9.897851003609 gnorm: 0.000875171093 xtb: 6.5.0 (97a52f5)
C            0.72030831976766        0.69627281530870       -0.06844152937674
O            1.88261933716817       -0.06754577827077       -0.29022736635401
C            2.60395005303730        0.27341467973000       -1.44318981404730
C            2.23555412251671        1.30566027484419       -2.33613146231216
C            2.98346343937288        1.59959250398425       -3.44728739677129
C            4.13653064097143        0.85612962563300       -3.70272063511478
C            5.13219725191547        0.92571056249689       -4.74566709806039
C            5.27268301238158        1.75167363420983       -5.86130548484532
C            6.35143567738629        1.56626298971489       -6.68558033068822
C            7.31994365391034        0.56643283530236       -6.44065746964715
O            8.37594124429489        0.46717613248282       -7.35696982127851
C            9.32181707614859       -0.53502190193939       -7.06525771109469
C            7.17572532643524       -0.25036049191886       -5.32463489760180
C            6.09009153746416       -0.06698076886313       -4.47827303776017
N            5.71480896272307       -0.75370757205230       -3.30287045503228
C            6.43649089328925       -1.82282188435041       -2.67256509883012
C            5.78527567716858       -2.99935843040985       -2.31389016959014
C            6.46788698153180       -4.01169315468566       -1.68528824581974
C            7.82273904829370       -3.87769418678900       -1.39533811079950
C            8.55251994337123       -4.94002805731057       -0.71343677594581
N            8.02702161285484       -6.10578266158980       -0.33859154657912
N            8.96154587274327       -6.80311876356681        0.24565979888632
C           10.07789474242502       -6.08758239429125        0.24329217043409
C           11.35890329407596       -6.53296000985353        0.83314074917024
O            9.86820067505602       -4.89011554488700       -0.35842317964614
C            8.47482658645384       -2.70340594185059       -1.75863354653841
C            7.79249879746424       -1.69162637175762       -2.38910244272670
C            4.51452318917183       -0.17850016792831       -2.83188500747284
C            3.75397979066770       -0.46236391110840       -1.70627268269132
H            0.24004102129127        0.33825282417281        0.84327504590740
H            0.02968004552394        0.57180729613757       -0.90374742249534
H            0.98499247121177        1.74674556094307        0.06043223385549
H            1.34971890915126        1.88078366239639       -2.13882862701478
H            2.69945707003527        2.39139352283680       -4.11749194755864
H            4.54120486032766        2.51456782462819       -6.06024903972446
H            6.48344226713054        2.18838284217221       -7.55289377908980
H           10.09696529869788       -0.51311343558368       -7.83266895697235
H            8.84067944157143       -1.51412745341630       -7.07580113993106
H            9.77990429681450       -0.34246782455081       -6.09404768272216
H            7.88294616713507       -1.02617235516636       -5.10799853089487
H            4.74064799234292       -3.10766439153677       -2.54752586404191
H            5.96288110898626       -4.92044685820989       -1.40749556378349
H           11.49657512562775       -7.60464256810719        0.69374562669298
H           11.38356387292628       -6.32060294510427        1.90128665114957
H           12.19453106036487       -6.01587485975085        0.36347801332881
H            9.52172918395474       -2.59980694337020       -1.53038015212682
H            8.29189709429688       -0.77568243167753       -2.65201260301728
H            4.04999595254182       -1.24102952710597       -1.03057766341025
