50
 energy: -10.390022100128 gnorm: 0.000300146259 xtb: 6.5.0 (97a52f5)
C            1.31851258294394       -0.03877157448203       -0.49076931509884
O            2.12572103063740        0.06157196960766        0.65888191253606
C            2.73437969186251       -1.12505254989107        1.05837852823785
C            3.53371876903868       -1.07952749487173        2.21792988884791
C            4.16511100777375       -2.19381877513712        2.68490284630321
C            4.03614034153622       -3.42214886143059        2.01857752497878
C            4.67320958386470       -4.59780276274656        2.46889617800577
C            4.54391085038395       -5.77819524553067        1.80847521381202
C            5.22343039059991       -6.98747186580440        2.29553387360295
C            5.49729604736535       -7.16790897425184        3.65345219309618
C            6.15155377988372       -8.28679928606550        4.10533422414824
C            6.57083588976638       -9.28680920704351        3.22450385049070
C            7.24969074467603      -10.49650031659877        3.71136914181684
C            7.00254925903518      -10.97404368784692        4.95918942207388
C            7.63942030992819      -12.13347353103474        5.44983563689384
C            7.39148486629599      -12.64110898665005        6.73443401554077
C            8.02886484263590      -13.76314481895917        7.17378175950757
C            8.95299967868515      -14.44494975921313        6.35728048927226
O            9.55858426462638      -15.57832718219775        6.89287978600791
C           10.48751017416680      -16.21510868681037        6.04748740973357
C            9.19477796059221      -13.94445126805336        5.08430663154888
C            8.55457664261204      -12.80245628728367        4.61230465579671
O            8.83041550671221      -12.35384649298527        3.33264473771686
C            8.20305022862667      -11.22034008283483        2.85484584596730
O            8.43018558115298      -10.80411119480397        1.72835640566843
C            6.30002697247371       -9.10258028510532        1.86885555025990
C            5.63936098304550       -7.98872582740830        1.41833362693295
C            3.71892351745116       -5.81910056921191        0.59031580101913
O            3.59914632771649       -6.87381727267390       -0.01552766547940
O            3.08966971932805       -4.67191232396390        0.14940747490389
C            3.24626237976234       -3.49090702137854        0.85327496044646
C            2.60943569787870       -2.34042561927070        0.39761658508541
H            0.89481482162300        0.94547138808729       -0.69643883762889
H            0.50670630689288       -0.74553269784320       -0.31152928125907
H            1.92489207432135       -0.34983139003562       -1.34288542794302
H            3.63189401272641       -0.13712033360143        2.72695159660134
H            4.77131805763379       -2.14153351443154        3.57283350991288
H            5.29713315246410       -4.53874400420634        3.34141860543812
H            5.16893494542873       -6.42592940294236        4.35996920786215
H            6.36609202934707       -8.38566392533532        5.15493121594700
H            6.28536490144979      -10.48043483998211        5.58848839742317
H            6.68897006718768      -12.13193673669070        7.37150004057952
H            7.84005629549618      -14.15371652067494        8.15799721344088
H           10.89537579076563      -17.07710823932372        6.57776329071414
H           11.30014006370123      -15.52770436528691        5.80723341407294
H            9.98746280558892      -16.55913343829032        5.14077870440767
H            9.88722134146858      -14.43325834842853        4.42727232932709
H            6.62718838828429       -9.85396572516619        1.17125688060313
H            5.42489424675378       -7.87648775918217        0.36965533969145
H            2.01481507580626       -2.42131430473715       -0.49118538886180
