95
 energy: -18.425705890398 gnorm: 0.000655707149 xtb: 6.5.0 (97a52f5)
C            0.97279906774617       -0.09571279804279       -0.02003833061386
C            2.16380243213503       -0.30681935115151        0.03984598936315
C            3.55861192415332       -0.55114275115912        0.07922346678914
O            4.20577838740668       -0.58159907403558       -1.19802422986860
C            5.57061009489224       -0.81321303860125       -1.16027803671283
C            6.25695958356407       -0.84721823693778       -2.38598550819742
C            7.60430934308805       -1.07253305106686       -2.44045818289620
C            8.35218263430036       -1.27770002717288       -1.27178882344576
C            9.76860195858642       -1.50942075062308       -1.36190423100906
C           10.59123382532061       -1.71228371463051       -0.30911677529358
C           11.99276861616698       -1.92598531367242       -0.40531722942497
N           12.81327659521131       -2.13285928016565        0.65251760397667
C           14.12514161359940       -2.29311722193962        0.28191563567388
C           15.17370274905868       -2.52629980910503        1.20947895296434
C           16.57921833039591       -2.67209104828021        0.78463339877534
C           17.27593760901971       -3.87826699572100        0.97918224902363
C           18.58397821772647       -4.00662677220746        0.61061068962373
C           19.28677344955157       -2.93685592997679        0.02261045304504
N           20.61926249510951       -3.06098311597825       -0.33452085780364
C           21.38510125922108       -4.30855622046823       -0.14282628726304
C           21.89653431144930       -4.45227147259054        1.27551395962974
C           21.39529538304985       -1.95150909073162       -0.92194671378560
C           21.17095607319570       -1.82528922378954       -2.41388314874952
C           18.58349031228946       -1.73306879941228       -0.17993412434025
C           17.27527448441118       -1.60524061227577        0.18850672021377
C           14.79359580575868       -2.60267608361314        2.57497380324133
C           15.57658116775612       -2.74449104493528        3.77357437994757
C           17.05184780175663       -2.85208484346880        3.88607981845410
C           14.70733436740897       -2.75560587148992        4.83791414823316
C           13.38048529641320       -2.59332494517730        4.35174556505925
C           12.15596518739760       -2.52918941980733        5.07004323026849
C           12.05218927394667       -2.63499257358824        6.41332634589755
C           10.82518898024967       -2.57939693262904        7.16095147858963
C           10.85784224518053       -2.71729841083269        8.55615048561704
C            9.71041499432627       -2.67069540373296        9.29710924620552
C            8.45718744012073       -2.48274324799287        8.69085397948268
O            7.34754122450899       -2.44720825095463        9.51888952582868
C            6.11222312741529       -2.25116691390663        8.84779792684735
C            4.96415256170865       -2.22208779454334        9.82574204154617
O            4.71762368911860       -1.19717948453548       10.42132796981821
O            4.28810703578492       -3.39766968505138        9.96973827683907
C            3.27505900867724       -3.25888212700615       10.91975442478561
C            8.42490794232848       -2.34489443611688        7.29235288528445
C            9.57484193924596       -2.39177585330479        6.55226580324136
N           13.49429609955226       -2.49685581094197        3.00518342780093
B           12.29257082909244       -2.24868865512703        2.08878076128162
F           11.66820807177147       -1.06366749702501        2.45230420552054
F           11.41668046076540       -3.32181391235921        2.17692464534202
C           14.12259309065141       -2.21291511620014       -1.15452798780084
C           15.27850738789241       -2.36406025008924       -2.07182076757242
C           12.82956631138234       -1.97278300411309       -1.55459294422416
C            7.66969233684846       -1.24285943251836       -0.04608575672682
C            6.32132878984910       -1.01785784577161        0.01023195622682
H           -0.07550490003792        0.09094350288600       -0.07279857484325
H            3.74660740192355       -1.51595795491496        0.56619194098513
H            4.04814945821575        0.22726211439665        0.67734913141373
H            5.69098328096113       -0.69052977211830       -3.28705281005730
H            8.10748967216659       -1.09393994364675       -3.39183525595684
H           10.19874132156348       -1.51596579912015       -2.34724235340518
H           10.18967270293375       -1.70963657728811        0.68632890216940
H           16.75195534251492       -4.70848104027706        1.42029702240761
H           19.08614074684949       -4.94139735695977        0.77971800377695
H           22.21568786678385       -4.31813759898251       -0.85663604901934
H           20.75411279911127       -5.15461841040791       -0.43198594297149
H           22.55536398445483       -3.62340174112028        1.53788641628309
H           22.45436404850912       -5.37971044993278        1.41931776663979
H           21.07539061488520       -4.44316633689126        1.99303364187960
H           22.45557063721773       -2.11643408598371       -0.70229483533755
H           21.13782260774096       -1.02719236759981       -0.39544276818510
H           21.46872589193954       -2.73832636954246       -2.93019459328074
H           21.73705219945798       -0.99817246428849       -2.84665381426419
H           20.11717045243216       -1.66250156213508       -2.64088606514936
H           19.08386650100488       -0.89717252820122       -0.63318578981596
H           16.75899697394458       -0.67222170535326        0.04296719653049
H           17.54879859651420       -2.21939599085996        3.15070476171383
H           17.38033693439363       -3.88008998438925        3.73295269491807
H           17.39083740107406       -2.53724777267969        4.87340406682487
H           14.99146485666495       -2.85041759421837        5.87125262850901
H           11.27208613573454       -2.39115744249039        4.47690808707110
H           12.95636796348588       -2.77617143598779        6.97787024862821
H           11.80653400356567       -2.86282030256313        9.04364582520510
H            9.74405448341488       -2.77740680009481       10.36686101833280
H            5.96852441269953       -3.06951799003125        8.13633513324491
H            6.15582671195974       -1.30322287038504        8.30398822503627
H            2.74456801903722       -4.20816126224969       11.02120959877922
H            2.57912749810371       -2.48124106546570       10.59711502725722
H            3.71601897093291       -2.97985010257373       11.87941202971166
H            7.48413643008475       -2.20054239185512        6.79355664081175
H            9.51730367099905       -2.28225468994550        5.48432359052967
H           14.94963662371097       -2.67192866643253       -3.06479605023368
H           15.81870419265933       -1.42308640981079       -2.17633764587060
H           15.97318613773107       -3.12023044542293       -1.70619787161982
H           12.50454780051487       -1.85907090673766       -2.57389515580440
H            8.21443565636454       -1.39466438268744        0.86814283410040
H            5.83248067814926       -0.99803449899038        0.96686762837707
