59
 energy: -11.463233192240 gnorm: 0.000849020440 xtb: 6.5.0 (97a52f5)
C            2.39745045681005       -0.85813011337386       -0.88280462925621
C            3.80330504390525       -0.49318502363615       -0.52765123622502
O            4.71268600393566       -1.16772784891789       -0.95550806939067
O            3.92209333593377        0.58402126466256        0.28309305878684
B            5.15689572976025        1.19528234294083        0.81264121984771
O            4.79193315052787        2.33722730695479        1.67340837877724
C            5.63993026749836        3.16208177564771        2.33232583897075
C            7.10775451177643        2.92320098067557        2.19654312750721
O            5.26836746298333        4.08469932698372        3.02490662312492
O            5.98002518668741        1.68710824021306       -0.31315450944785
C            7.00198862788186        0.94660863794722       -0.80845963382838
C            7.60109293149101        1.33847966447659       -2.03589945621783
C            7.17610401966819        2.42863572399661       -2.72176974353384
C            7.73860023123611        2.85674002741062       -3.94445751026858
C            7.30793747432200        3.95543436600583       -4.61235113484317
C            7.83747065755454        4.44288045150979       -5.86221336137073
C            7.31057051292054        5.61122710369894       -6.42687430244592
C            7.79374453005458        6.10298284487376       -7.61700250253635
C            8.81268505261303        5.44503787502476       -8.27728411293555
C            9.34738613058020        4.29031317126176       -7.74054074633920
C            8.86987391773965        3.79264374782869       -6.55007836251693
C            7.46747234933024       -0.16754372316747       -0.12265545326133
C            6.91766856214551       -0.52738029161636        1.10160105805325
C            7.39547717527398       -1.63537940952422        1.86087449258900
C            8.39705675395705       -2.48081181228402        1.49735424920098
C            8.81426565700881       -3.56855524745977        2.29599541986708
C            9.79990057317630       -4.42340728168789        1.92657886739357
C           10.26602805459161       -5.55345023685396        2.69192087182363
C           11.29620945883486       -6.35425737625358        2.18308228355952
C           11.76292335108936       -7.43980073739742        2.88697121716318
C           11.21724519712970       -7.75767995097997        4.11518850975640
C           10.20044503799713       -6.98264351612760        4.63756379940059
C            9.72832633977862       -5.89520371940054        3.93935209551453
O            5.89359107648129        0.19925555905029        1.62188322286147
H            2.34915836166185       -1.24726645615750       -1.89842317230549
H            1.74725862375909        0.01236090798903       -0.81574724001573
H            2.02011406558206       -1.62201311593026       -0.20494050502556
H            7.30193886906990        2.05517857700964        1.57225477097854
H            7.55694964309396        2.75065030408553        3.17263969226892
H            7.59333033217879        3.78597540913772        1.74479034245385
H            8.41105025475713        0.75029031517673       -2.42761907258475
H            6.36257172246084        2.99711364604551       -2.30602818900796
H            8.54582324396769        2.27428606172171       -4.34874467498844
H            6.50255142468431        4.51991538689158       -4.17663308190109
H            6.51647638968415        6.12729488092430       -5.91549269596983
H            7.37668060816184        7.00422911992670       -8.03561818418872
H            9.18984973459936        5.83172001978393       -9.20970452288256
H           10.14176460146899        3.77723881434609       -8.25748845597176
H            9.29584933884781        2.89177121153002       -6.14748002312457
H            8.27359941311573       -0.73616640309047       -0.54380443822466
H            6.90047197017643       -1.80787349370583        2.79940241928939
H            8.89736644601693       -2.33327469016232        0.55825473790715
H            8.31465495587007       -3.71352383589332        3.23592925002443
H           10.27890696907875       -4.25174028714246        0.97896919207470
H           11.72376934410388       -6.11052557387292        1.22580322032464
H           12.55636271818883       -8.04483074930682        2.47963438871877
H           11.58428699813364       -8.60842532431316        4.66537048911180
H            9.77551933732145       -7.23188908815485        5.59623165315462
H            8.93616981133998       -5.30293975931334        4.35999453010084
