37
 energy: -7.355216240863 gnorm: 0.000987936651 xtb: 6.5.0 (97a52f5)
C            1.30340919191101        0.07828176746822        0.73745754034057
O            2.10176701989312        0.04043682496209       -0.42110570376272
C            2.82997338996812        1.20386112158763       -0.67853797551319
C            3.62115533152125        1.22568234802504       -1.83933137776372
C            4.36450719722397        2.32284056785304       -2.16957398412581
C            4.35478470343672        3.46290899263965       -1.35211953771862
C            5.10368853423441        4.62555276345567       -1.65663089860461
C            5.06283945220804        5.71333072555992       -0.83882505634930
C            5.82481595028915        6.93690373272537       -1.13286744415307
C            6.31966986409622        7.23584565424605       -2.40168103850122
C            7.01692979155077        8.40404473953434       -2.62131798146585
C            7.22795397210432        9.28760826694031       -1.58838793002965
S            8.13901523255590       10.79968042752441       -1.88048141588363
C            9.82615844962859       10.20046019685863       -1.53977533739273
O            8.08920653760197       11.14731419775784       -3.34862048103494
O            7.81131795672763       11.80839380129037       -0.80759735159644
C            6.73727755439778        9.01624181701752       -0.33276574974293
C            6.03881867857526        7.85073750520303       -0.10640950999409
O            4.30997021017987        5.73438456636396        0.32628574335132
C            3.55930782002881        4.63505812065986        0.67958662732648
O            2.88107150902497        4.60495030710987        1.69487424121580
C            3.57375902945257        3.45455273073817       -0.19092708084781
C            2.82562862959573        2.33384822683098        0.13113714047591
H            0.77526582274704       -0.87347789515923        0.81539941603442
H            0.57387481444658        0.88590259717172        0.65699067939735
H            1.93581198413970        0.20911492225663        1.61713516997564
H            3.62540669954108        0.35020019431191       -2.46448970007582
H            4.96559757644142        2.32209987837584       -3.06273052649608
H            5.72055802762075        4.62692912640312       -2.53513289873734
H            6.13642450974614        6.56494707077430       -3.22196483319009
H            7.39263232251100        8.64336874441752       -3.60286108017056
H           10.34769885900245       10.01349387348418       -2.47350983729463
H            9.80134484563210        9.28327783863845       -0.95894493620269
H           10.37388517223911       10.95190344447042       -0.97935851760377
H            6.89643069864644        9.72688352377461        0.46181126546789
H            5.63955658040867        7.63077645941197        0.86945806898149
H            2.23865608067374        2.36225081932471        1.02976229168107
