34
 energy: -7.031677085446 gnorm: 0.000602789734 xtb: 6.5.0 (97a52f5)
C            1.34683534792868       -0.59412091587775        0.26358351467903
O            2.41294915630689        0.16177358393567       -0.26283662827167
C            3.04326138558323        1.01071727613114        0.64891647868619
C            2.68638785975442        1.12037887638169        2.01698817727210
C            3.34396014698846        1.96729399837036        2.84979146450807
C            4.40825709493229        2.77218232720687        2.37838576656303
C            5.09965154104801        3.66542743404566        3.21560067723704
C            6.12386082952853        4.45396749450182        2.73858865680564
C            6.82626572374839        5.40202295446794        3.62972550311294
C            7.16090928998725        5.04488474830386        4.93622658766170
C            7.80375200755486        5.93364717654663        5.76563683977824
C            8.12812090818522        7.19974883816349        5.31645674736620
N            8.80695916605099        8.14639993797271        6.20367174647577
O            9.12558231760493        7.77089106548567        7.34234238723375
O            9.03946259595201        9.29119128889487        5.78572255727433
C            7.80425834772417        7.56727414540719        4.02428774462906
C            7.16316456472802        6.68231785857481        3.18965301225134
C            6.48307200814951        4.34567470094415        1.37498786003937
C            5.83656340981698        3.48933828607216        0.54080516520450
C            4.77844151653059        2.67922385566597        1.01535210658007
C            4.08199247635089        1.79248708426685        0.17943060692138
H            0.93206556704954       -1.20667317343985       -0.53803115305705
H            0.56987661940976        0.07401319920051        0.63833040339244
H            1.71027317200767       -1.24724426491792        1.05822116292843
H            1.87976881718876        0.52404156322521        2.40203770997439
H            3.05958095078981        2.03888320611199        3.88524332781772
H            4.80582444868440        3.74745935834561        4.24593591107684
H            6.92326865131456        4.05587202317343        5.28772211206137
H            8.06404376636888        5.65803941571652        6.77320391412357
H            8.05919006147116        8.55731421686693        3.68699277392887
H            6.89869182088289        6.98056199930510        2.19004438653258
H            7.29405988580771        4.94804780853461        1.00431450925219
H            6.12332691593483        3.41815477031667       -0.49398104229603
H            4.35463162863604        1.71292786209827       -0.85623098774225
