50
 energy: -10.389236972337 gnorm: 0.000477711254 xtb: 6.5.0 (97a52f5)
C            1.22049155229955       -0.39093099127980        0.27255467203142
O            2.04227930731881        0.62261568176915       -0.25732353590380
C            2.78238018307227        1.33441150624086        0.68307526785345
C            3.63138760347925        2.34923462633550        0.19893006654311
C            4.39111030133937        3.09928457235714        1.04676282042686
C            4.34679906211341        2.87928198893335        2.43162845979432
C            5.11887127866898        3.63259920611198        3.34260285430635
C            5.06405222345918        3.40151422519402        4.67802893699199
C            5.88763911379718        4.18622885708796        5.61252296657268
C            6.14513639533705        5.53784360589243        5.38319107451470
C            6.93918802287120        6.25837804017515        6.24595278909369
C            7.49100775069003        5.65354982488298        7.35238786924652
C            7.25250525963260        4.30578343838974        7.62271249774798
C            7.83960993870032        3.65465850296867        8.80550551221352
C            8.01385224363138        4.34143252235739        9.96241737380425
C            8.59313482051375        3.73697364635654       11.09949534547553
C            8.79081057033769        4.43121930369526       12.30250524675866
C            9.36305903496998        3.81458477462844       13.37550471807596
C            9.77152505461014        2.46769459418284       13.31159965399939
O           10.35144568976058        1.92314889611735       14.45438169738932
C           10.78039935650823        0.58806303314653       14.32733524817581
C            9.57086596543449        1.77943173224708       12.12204549785032
C            8.98995697649291        2.38709477069770       11.01280924734684
O            8.81896376985771        1.64982101038519        9.85401351170042
C            8.25720061501175        2.24684862126975        8.74381283010226
O            8.10360249123330        1.62773677716325        7.70122241815611
C            6.44813855389439        3.59569817161860        6.73904502790849
C            4.17536383911292        2.34599674738124        5.18316881653776
O            4.11650542470706        2.14831444393274        6.38790664793841
O            3.42302346635074        1.60259134914341        4.29646345869302
C            3.50675801506373        1.86759549845725        2.94009963863113
C            2.74110575438972        1.11516046409290        2.05409999193373
H            0.69775991752181       -0.87273181764364       -0.55513188850706
H            0.48591516998399        0.04526043400287        0.95139638421727
H            1.83377325399380       -1.13261797080835        0.78669565479548
H            3.66462844200974        2.51590682656492       -0.86321090071152
H            5.03515363064554        3.87012221681814        0.66001870584070
H            5.78094669968643        4.38695712071211        2.95870986438546
H            5.70420270661222        6.02182456842873        4.52912283662514
H            7.13240555018862        7.30090822495288        6.05242804762894
H            8.13157981171850        6.21823329984616        8.00715884747419
H            7.69285882785694        5.36473675501445       10.02925691281959
H            8.48703798614072        5.46172223788044       12.36770163580342
H            9.51789287725906        4.34613694205380       14.29767212235689
H           11.23404664844807        0.28475418167201       15.27222747320656
H           11.52623264175434        0.51331367301915       13.53426297926814
H            9.92520017958735       -0.05692778209863       14.11955634666725
H            9.86278822617636        0.75169198430920       12.02915414929902
H            6.25749643367538        2.55299316691707        6.92959458472922
H            2.11005136208483        0.35238649642612        2.46651762219202
