49
 energy: -9.581362906525 gnorm: 0.000934596928 xtb: 6.5.0 (97a52f5)
C            0.39761248627773       -0.18606118055183       -1.50925440131703
O            1.67130851084154       -0.30550769223876       -2.09843989094088
C            2.47348771772612       -1.32211024334298       -1.57354051116036
C            2.07433269048826       -2.20340838689514       -0.54148948648143
C            2.91279201025966       -3.16851271012999       -0.07382967512158
C            4.21451863042735       -3.32390641665405       -0.60649638487641
C            5.10188059999550       -4.30322096095315       -0.13987329082978
C            6.38081463947183       -4.44136246788346       -0.66978350083333
C            7.25226779253099       -5.45096561128758       -0.14680115189909
C            8.52735445396271       -5.69734059862015       -0.54516162564153
C            9.29863874466975       -6.72553721919880        0.05695151997599
C           10.63680761635525       -6.99032144269671       -0.30690008747879
C           11.33931723404221       -6.22021028668702       -1.39125842019791
C           12.86916266001747       -6.13631149127278       -1.21380066406198
C           13.48053958821030       -7.39854271600409       -0.68157235789351
C           14.80754094172943       -7.70243056310505       -0.92422658549279
C           15.38346412721350       -8.84113978633948       -0.39413138682313
C           14.63558236204778       -9.69022887147627        0.39752404069762
C           13.31551129066650       -9.40434422234178        0.65107266273996
C           12.71577148474424       -8.26664458860139        0.11350360666786
C           11.31228672761538       -7.99579833692152        0.38126245600536
O           10.69175689503484       -8.75531402946724        1.32180632454448
B            9.22858837311385       -8.80906037140344        1.27964374388340
F            8.85660272222859       -9.61628398230783        0.23056241495184
F            8.73799921721618       -9.30068833103170        2.46110149642727
O            8.69879194674849       -7.46421604059369        1.03336537580004
C            6.77405930629393       -3.56323493357806       -1.71253041807867
C            5.93198570175593       -2.60606782948121       -2.18431369338700
C            4.63047608221321       -2.45269664232971       -1.64701500023053
C            3.74510397390962       -1.46908207558595       -2.10559452043734
H           -0.12149646578988        0.64871490674025       -1.98277914615513
H            0.49970068563038        0.01908068832350       -0.44250411426315
H           -0.17449789538593       -1.10025100004166       -1.67485816529361
H            1.09070831765930       -2.11044979180419       -0.11883678971584
H            2.59208728294309       -3.82897598216532        0.71281233932693
H            4.78470076138968       -4.95995202658058        0.64953668032559
H            6.86346468936396       -6.07116900532538        0.64186750611441
H            8.95301219576939       -5.11594591400498       -1.33834192289292
H           10.93186470388668       -5.20495771028166       -1.44593372532942
H           11.10362661239112       -6.68871144929968       -2.35369972548736
H           13.11698028908167       -5.31770127662905       -0.52811391200974
H           13.34801779224088       -5.87967545175831       -2.16657401053145
H           15.39666390560688       -7.03420271030478       -1.52853070859750
H           16.41887251847951       -9.06311891851449       -0.59373749799425
H           15.08593939450106      -10.57550506040706        0.81521652164026
H           12.72001594528947      -10.05769319587725        1.26532527039151
H            7.75724305065814       -3.65553815815286       -2.13703237928938
H            6.24755467338183       -1.94645060704495       -2.97398002068761
H            4.05006501506457       -0.80242730791275       -2.89026678810480
