45
 energy: -8.884943528632 gnorm: 0.000553008943 xtb: 6.5.0 (97a52f5)
C            1.41743524192537       -0.11933234518374       -0.77007918578018
O            2.24490655872245        0.00945612474651        0.36194079298194
C            2.93161628274337       -1.15042729645684        0.72925013580470
C            2.82623956986400       -2.39051683063112        0.05689458402089
C            3.52693496063903       -3.48100854406839        0.47292769480076
C            4.38625066531628       -3.41062255104476        1.59485007534354
C            5.11930952902823       -4.51648281658992        2.04708867635903
C            5.96155774182314       -4.43193325295208        3.15102031132997
C            6.68852997597644       -5.59121242743149        3.57505894669592
C            7.55822187053785       -5.65110660723802        4.61642380967139
C            8.22817367230899       -6.85021016140938        4.96159887146017
C            9.11256385898927       -6.87725727529246        6.03946353012439
C            9.69163697240609       -8.06663828325333        6.43558114096206
C           10.54653590440619       -8.17336957623404        7.61278553475238
C           11.11669055148723       -9.41030653961037        7.91416858534498
C           11.93313151191446       -9.56782561913695        9.00944291208600
C           12.19898593180000       -8.49157840294057        9.83321139681339
C           11.64270990598447       -7.25806422734516        9.55484985128578
C           10.82619721413358       -7.09593295681801        8.45975154201057
O            9.45273384042584       -9.19940115861599        5.72130870743591
B            8.99153538782652       -9.04838522589427        4.33303368108628
F            8.45883032939509      -10.23011224618815        3.88683992303151
F           10.07084830146653       -8.68533299479109        3.56265587786103
O            7.98680249342379       -7.97952905854344        4.24315300916302
C            6.06601409986273       -3.18538866284349        3.82085643382678
C            5.36530469803624       -2.09791178549883        3.40409091640310
C            4.50525388587425       -2.17397236044909        2.28161072632545
C            3.77100588415950       -1.07054546586029        1.82936964160404
H            0.94379669880353        0.84501622912239       -0.95991592469709
H            0.64294248487728       -0.86368491039279       -0.58011016300731
H            2.01837815020993       -0.39628109164205       -1.63753524996958
H            2.18063859866718       -2.47491747892889       -0.79793525992449
H            3.43399035027386       -4.41620037736395       -0.05119736779163
H            5.02666105761899       -5.45147009982099        1.52517358788476
H            6.53467943812983       -6.49952837737197        3.01932431112732
H            7.75675286973964       -4.77484479609192        5.20355903158530
H            9.29410515593201       -5.97176504386654        6.58454197782543
H           10.90367114389255      -10.24363514621444        7.26661662178020
H           12.36576791913582      -10.53092317485114        9.22521784409140
H           12.83878402334293       -8.61384400251320       10.69166226927198
H           11.84949188973048       -6.41944432409674       10.19951988728543
H           10.39908509821191       -6.13002566741866        8.26063228406684
H            6.71020002906285       -3.09891510189520        4.67690613667014
H            5.45651853338564       -1.16109204784597        3.92581650125862
H            3.85312971850675       -0.13016604122159        2.34153538973380
