69
 energy: -13.832766467391 gnorm: 0.000769445853 xtb: 6.5.0 (97a52f5)
C            1.04412296746479        0.00478295023397       -0.11382794770993
O            2.03309991137133       -0.83949309830329        0.42804118530509
C            2.87311394098506       -1.44267293775750       -0.51171557909093
C            2.76921933471289       -1.25669521030628       -1.91187508796582
C            3.61962540849505       -1.87907704783310       -2.77098942931008
C            4.63893825787662       -2.73668778390938       -2.29243051477061
C            5.52469609905374       -3.39766556147878       -3.15483637314977
C            6.51582349271315       -4.24232464944968       -2.67440228221761
C            7.38082845436796       -4.90181227794628       -3.60938400541458
C            8.36178579590539       -5.78906430424959       -3.30252975862382
C            9.20940304315832       -6.48776888412522       -4.21930977527864
O            9.94309460530689       -7.50642342145424       -3.69208090740651
B           10.29918775571721       -8.60644868461781       -4.59701307428196
F            9.14963542501125       -9.29831599754125       -4.90165406573518
F           11.21417980630173       -9.43498542420820       -3.99881371161043
O           10.84700828234823       -8.05708874112548       -5.83940792271389
C           10.21147619578112       -6.98715528475936       -6.37389834993848
C           10.46724364963866       -6.66628834215620       -7.73458470955750
C           11.28800238737983       -7.41455787193270       -8.50841557969978
C           11.58206776212366       -7.17742329127489       -9.89344819899803
C           11.04641846829836       -6.07067702100654      -10.60233137490994
C           11.32559271054980       -5.87258424921155      -11.91693657904226
C           12.16283643133294       -6.76952837135857      -12.62510210059887
C           12.46083719890152       -6.59728636621539      -13.98325162955460
C           13.27447881902808       -7.48178840798966      -14.67183005779221
O           13.50479757875887       -7.22236330243660      -16.02545875290722
C           14.31884557156099       -8.16638221047850      -16.68194679677647
C           13.81478146057629       -8.58370010693218      -13.96513219320138
C           13.54528067134831       -8.77642933972297      -12.64640882808074
C           12.71204085716288       -7.88013532762556      -11.93445849975950
C           12.40916005600661       -8.05822992536616      -10.57677321594273
C            9.33079392587027       -6.18845061475336       -5.60225801957842
C            8.68496713234447       -5.00809144058718       -6.22672937295932
C            9.12185346735095       -3.71272741990123       -5.93141171341515
C            8.51950765357713       -2.61924728244250       -6.50793857574540
C            7.47356803382105       -2.79041622012074       -7.39307098582436
C            7.03353380594450       -4.06166234252560       -7.70523382701281
C            7.63202928059625       -5.16005318666593       -7.13393230765597
C            6.62547788485329       -4.42082943148560       -1.27106746730204
C            5.78106064705692       -3.79152683960889       -0.41250747910935
C            4.76096703909544       -2.93377535386214       -0.89311312799461
C            3.86959472141572       -2.27764504705852       -0.03378107529261
H            0.45853473994842        0.42092029147946        0.70716860726433
H            0.38284424999859       -0.56886839434271       -0.76487850895135
H            1.51356639699522        0.82204149139622       -0.66324936802223
H            2.00354841022918       -0.61280004329255       -2.30412888323298
H            3.52495681762308       -1.72787529719935       -3.83226785342195
H            5.42933494238839       -3.24748015206303       -4.21488312485825
H            7.19504049228413       -4.68641748853791       -4.64334686249626
H            8.49495092391511       -6.06368804337910       -2.27306809416315
H            9.97657583377020       -5.80831400746747       -8.15104146957804
H           11.74794163400512       -8.27031957391354       -8.04632092207257
H           10.40786107167221       -5.37444735936043      -10.08957914673703
H           10.91044068868452       -5.02781895037114      -12.43883588512194
H           12.04916918250748       -5.76066172578575      -14.51611610795134
H           14.42121347837928       -7.86548862578203      -17.72558644808258
H           13.85121825066758       -9.15127652872661      -16.64144691576305
H           15.30760758215102       -8.18891717069282      -16.22147935587254
H           14.44955877514619       -9.28145573481622      -14.47987097083882
H           13.96363103569070       -9.62029344956599      -12.12585104391727
H           12.82406908909713       -8.90268376301058      -10.05708570919838
H            9.93712189506368       -3.58397226556015       -5.24069667469430
H            8.86350207348291       -1.62673012580404       -6.26705452931314
H            7.00233238879880       -1.93171922548394       -7.84238661943079
H            6.21921108142870       -4.19316272836397       -8.39876039956634
H            7.28860700836976       -6.15220905087878       -7.37101843938996
H            7.39192478639798       -5.06420219865085       -0.87866755772166
H            5.87746390835605       -3.93884195776131        0.64926311874247
H            3.95067727180497       -2.42141225054074        1.02740923303565
