35
 energy: -7.168155146948 gnorm: 0.000849308733 xtb: 6.5.0 (97a52f5)
C            1.12051475438258        0.21473159824845        0.22094867849328
O            2.23459642083100       -0.40547280352279       -0.37976589778838
C            2.97259255509202        0.41297841815371       -1.23066938889621
C            4.10164359105057       -0.15533665281728       -1.85661282707122
C            4.88092053298448        0.57314242859934       -2.70448099056964
C            4.57999375724495        1.91769763516522       -2.97766869959115
C            5.36339632353166        2.70693893283496       -3.84277000275098
C            5.06223280007953        4.01046022238070       -4.09110779357830
C            5.90774528253175        4.76727078591498       -4.98260089242197
C            5.73551249022025        6.05759007448863       -5.31186139337038
C            6.57883872433478        6.83251050598316       -6.20314144244126
C            6.31416747132905        8.19081194196401       -6.38642381483110
C            7.09300015054581        8.95816448037998       -7.22266644018010
C            8.15339205717286        8.38848906449754       -7.89658415921570
C            8.43099715030827        7.04673844650205       -7.73210121362609
C            7.65484373377527        6.27501038513550       -6.89658680783283
C            3.88210808902245        4.60360566327966       -3.43959422548590
O            3.59531992200973        5.77227782820859       -3.65573072693307
O            3.11235271224784        3.82993908065879       -2.59044411863516
C            3.45664794479555        2.50852600341545       -2.36225310420508
C            2.67492498401392        1.74247197154203       -1.50271251057853
H            0.62353555877873       -0.51517137197372        0.86158283607432
H            0.42084110196004        0.54609990024106       -0.54775386140469
H            1.44884951363814        1.05678687976365        0.83200655316972
H            4.33239324424122       -1.18462237092923       -1.64715722044151
H            5.73873408330844        0.12349397682794       -3.17400272455582
H            6.22180687221762        2.26175422922884       -4.31267907972593
H            6.74346936603421        4.23915618822430       -5.40395155702943
H            4.90260927502120        6.57709726762405       -4.87624342193632
H            5.48837535619736        8.63904023243280       -5.86113099461217
H            6.87485879270504       10.00594605887775       -7.35018392526505
H            8.76252745247601        8.98977987879230       -8.55145699159207
H            9.25756216325857        6.60118570633264       -8.26079645646865
H            7.87916194157294        5.22931094964037       -6.78555850331144
H            1.82526383107724        2.21454646390963       -1.04967688139105
