78
 energy: -15.435201717757 gnorm: 0.000671642551 xtb: 6.5.0 (97a52f5)
C            2.14962953064047       -1.30653051172101       -0.55855914590018
O            2.54365043749568       -0.24884775349111        0.28764510056676
C            3.34020973018665       -0.63099677547821        1.37217805941360
C            3.73242433694119       -1.96695871118165        1.64252434275799
C            4.50983358789604       -2.27036782282706        2.71453718657194
C            4.95520725195663       -1.26050110034226        3.60135993255403
C            5.76072259060981       -1.54435276946532        4.71794322679868
C            6.18535750678330       -0.54965095042106        5.57648886919217
C            7.01735809186112       -0.89790234446050        6.71158826658939
C            7.43495400075440       -0.05918550339664        7.67246519674316
C            8.26817585800412       -0.48840506784863        8.77656416151303
N            8.57669846457310        0.44536793715971        9.68125602821065
C            9.34274842006690        0.05116275230138       10.70164504698924
C            9.69226178596941        1.03499919256006       11.70812440194629
C           10.45115227268150        0.81271846415465       12.79655564525156
C           10.78106295827423        1.79836957626694       13.80624712022535
C           11.58699252688276        1.43101430109532       14.88939271484559
C           11.91325460929455        2.33160216053837       15.87094427927516
C           11.44994400237712        3.65162722861978       15.82402778643733
N           11.77723344557050        4.57236586690749       16.83262895765576
C           12.66319984014934        4.21250375882768       17.94047213208757
C           11.23852564738521        5.93287857521903       16.83284952819428
C           10.64632296530685        4.01982119232044       14.73827229739998
C           10.32046775707802        3.11873874227833       13.75603272156385
C            9.77756342512756       -1.25707081020482       10.78807519139659
C            9.40935734761268       -2.15730321483790        9.80783681586521
C            9.83363865601394       -3.54317318815906        9.84795655972248
C           10.54369311846280       -4.12323610864057       10.83235917163880
C           10.95760492007679       -5.51177711394471       10.85828495471871
C           11.62451446953031       -6.01228062819798       11.98169231668303
C           12.02747510867898       -7.32179924738044       12.04439259174672
C           11.78822858407910       -8.20367394947235       10.98396896331615
N           12.20048617590448       -9.54478429303700       11.04703370701280
C           12.78990970275687      -10.11016403870490       12.26106330492289
C           12.06278860681795      -10.44493713601359        9.90180604596971
C           11.12404681161111       -7.70161489150017        9.85857405508428
C           10.71935761035926       -6.39207831656174        9.79685706584294
N            8.64392230049238       -1.76981801801366        8.78514260293015
C            5.79282297334404        0.78518338853927        5.30950104491621
C            5.01578667508503        1.09063217718546        4.23662590283445
C            4.57274282167842        0.07967962252586        3.35021539185005
C            3.76981652454950        0.36226869777037        2.23386712499045
H            1.54287640415302       -0.89962548096848       -1.36836908016786
H            1.55148256729119       -2.02805851582727       -0.00007850149905
H            3.02841202843615       -1.78977104063155       -0.98794356370105
H            3.40900194838628       -2.75449366365588        0.98674660503817
H            4.79776674131832       -3.28995019417875        2.90449911158668
H            6.04934583750073       -2.56272926394037        4.90561044074899
H            7.32183528635447       -1.92594792224419        6.79022858904152
H            7.14670087490659        0.97422463471531        7.65135505666305
H            9.29148288754932        2.01759511490707       11.54737298849460
H           10.85267137954225       -0.17120296956973       12.95274252266998
H           11.95122826264923        0.41953534752375       14.94748853200635
H           12.52935134572550        2.01813040948238       16.69460349287191
H           12.20097243569200        3.44066658698975       18.55308850920976
H           12.87067443142558        5.07265187212132       18.57362992727221
H           13.61127926004537        3.84194169017861       17.55525677635651
H           10.15160611348891        5.90444617119371       16.78335508140204
H           11.62047216675447        6.48582824135062       15.97667951441913
H           11.52002742304770        6.46682758768936       17.73812805155977
H           10.28209202899697        5.02945606398535       14.67295819132032
H            9.69979527758302        3.43526423919465       12.93721411724473
H           10.39664463633818       -1.57027651803946       11.60488744534096
H            9.52789269340891       -4.13921855449141        9.00930533728318
H           10.82718971031071       -3.53075902429719       11.68235251952222
H           11.81966924161677       -5.35087131155788       12.80847875860457
H           12.54290895144457       -7.67694989147588       12.91870027276966
H           13.77263759151217       -9.67662889488367       12.43580385894540
H           12.89995866732910      -11.18940904915035       12.17742496337964
H           12.15161851960800       -9.90422640653761       13.11803378227651
H           12.49086271243749       -9.98690798711558        9.01210931743137
H           11.01166344267583      -10.66165118275763        9.72112137073634
H           12.58288816682036      -11.38435316973010       10.07792949476422
H           10.92075373247921       -8.35878520461734        9.03203058007754
H           10.21560859771390       -6.03890888591236        8.91519765355199
H            6.12242873156044        1.57175432193949        5.96404133586449
H            4.72857460907705        2.11023904071779        4.04607138495784
H            3.47656184384688        1.37611044066016        2.03538889359294
