106
 energy: -22.525315672839 gnorm: 0.000701555396 xtb: 6.5.0 (97a52f5)
C            1.89702614405365        0.37310045097956        1.91139015092090
O            2.36507891548109        0.59271071750104        0.59951820336009
C            3.27716929574878        1.64556592615325        0.46976480144558
C            3.73003156302972        2.44545424806161        1.54975600866207
C            4.61974153601687        3.45373898257316        1.35598693051528
C            5.12539472981685        3.74130850721269        0.06544333168371
C            6.04616181243605        4.77827002035410       -0.16521498883017
C            6.52781100011421        5.05144627310845       -1.43022350241021
C            7.47097181455306        6.13710711856916       -1.61328577128590
C            7.94925863049557        6.57569108065891       -2.78799589846483
C            8.88517717556221        7.67547041320581       -2.89258253761301
N            9.24265544691114        8.02704764687116       -4.13103451147273
C           10.10039940996426        9.04507299584615       -4.23427524058173
C           10.50421190683917        9.45644763902557       -5.56476390687496
C           11.35836094891650       10.45271812852322       -5.85954675101058
C           11.73699264068797       10.86130149250292       -7.19849497188402
C           12.66376320704314       11.89541264886401       -7.36811209822590
C           13.03672219747355       12.31541717386744       -8.62029459950662
C           12.49955004890163       11.72401337869030       -9.76349757584647
N           12.87601787061421       12.17066559708279      -11.06899462466996
C           14.19726052293585       12.68085370759255      -11.30947808806390
C           14.39604775003030       13.76507103313461      -12.16096120571165
C           15.66253454387193       14.25000530874213      -12.39794184608944
C           16.75438695338614       13.66134630159233      -11.79018394239336
C           16.57436986994415       12.58410663186241      -10.94445351193355
C           15.30881178550232       12.09728646329346      -10.70605189369073
C           11.93082420083899       12.12421608364477      -12.14999553415426
C           12.33868340980811       11.78058088721153      -13.43664686962700
C           11.43458654509320       11.74373067291570      -14.47427554168910
C           10.10687653825945       12.05002927971229      -14.24734895193999
C            9.68671225410665       12.39468837736264      -12.97745395588428
C           10.58900453676250       12.43262413347938      -11.93835237259161
C           11.57797365173852       10.69015642511565       -9.59903181852006
C           11.20423088001397       10.26717591986931       -8.34775865870473
C           10.57211247557715        9.68247346670335       -3.10336611109864
C           10.14792254484411        9.25443048066675       -1.86047295457005
C           10.60405629216883        9.89119438872890       -0.63995387889185
C           11.35986507173241       11.00140202985989       -0.56778882318594
C           11.80436624293651       11.63487952027567        0.65861768828141
C           12.48179262952677       12.85706162787054        0.59539271756976
C           12.91310462602225       13.48839242536471        1.73475816205009
C           12.69155755861491       12.92699530322523        2.99201101961433
N           13.13645823240556       13.58918565927850        4.17939154783723
C           13.16072797858650       15.02424234201075        4.24131995798664
C           14.19325927042755       15.69073887049399        4.89677862889169
C           14.21543797782417       17.06601216985139        4.95698894919866
C           13.20695267016051       17.80164724600982        4.36545008502734
C           12.17418753094263       17.15570282854467        3.71414194514222
C           12.14982654421087       15.78058812982937        3.65274153342073
C           13.56298870719913       12.82514917162108        5.31862291574386
C           13.25666306084168       13.24410295767093        6.61111575474004
C           13.67059747150993       12.51475222162306        7.70294168697585
C           14.39909213344960       11.35469416375868        7.52514646519895
C           14.71278677906297       10.92677429326584        6.24980013477264
C           14.29991203968801       11.65433022335833        5.15639957168331
C           12.02225633189629       11.70502958872853        3.05956952371202
C           11.58674674977534       11.07286875974194        1.92130533765811
N            9.29541292678004        8.23265284251983       -1.75020109442605
C            6.07669592259104        4.25347081337935       -2.51058605290196
C            5.18851331219774        3.24235709249379       -2.31827446532572
C            4.68487246564397        2.95512901336278       -1.02699302216040
C            3.76585999410757        1.91957664945930       -0.79494529999795
H            1.19320686759389       -0.46011929910889        1.89791857555385
H            1.38230682989654        1.26206614802958        2.27829881525100
H            2.73039878373576        0.11860362446856        2.56741622675200
H            3.36233871000878        2.25063909960211        2.54052521050128
H            4.95169210691636        4.05160366652675        2.18722395888426
H            6.37740373674234        5.37416653507414        0.66596593224925
H            7.80823748449198        6.63999693777603       -0.72511842460469
H            7.63181508035679        6.11877031409164       -3.70555081468064
H           10.06239714717020        8.89913960034699       -6.36866161893218
H           11.80549992014104       11.00479764853104       -5.05387925320695
H           13.08487470067677       12.36679452711526       -6.49659482219355
H           13.73974310705382       13.12168362626594       -8.73488224727238
H           13.54108114047025       14.22337576845460      -12.62639261154406
H           15.80190158652450       15.09045086696990      -13.05810327585507
H           17.74547598497963       14.04162656991576      -11.97627588547209
H           17.42604453864612       12.12264615541291      -10.47191998157937
H           15.16377321725810       11.25111971889366      -10.05748123570624
H           13.37294513924672       11.53715608684264      -13.60587859716482
H           11.76326586052375       11.47491759892582      -15.46486120114329
H            9.39974359313367       12.02054196724849      -15.06009997111756
H            8.65140586255670       12.63581464009924      -12.79989292824402
H           10.26958307345648       12.71231617704762      -10.94969747774261
H           11.16861752506133       10.21853071765107      -10.47521716141929
H           10.48867201603002        9.47032263329193       -8.25508983873659
H           11.26451794988444       10.49607015212205       -3.18860297038732
H           10.27590533118503        9.42715784720168        0.27082052673825
H           11.65290576709454       11.48552564841094       -1.48092456928460
H           12.66166194405972       13.30489948296204       -0.36694614849350
H           13.44089567973949       14.42367933515409        1.67020699406633
H           14.97978539208814       15.11279293816061        5.34948359020234
H           15.02122206200046       17.56938476663290        5.46581208091454
H           13.22558500645103       18.87816472178509        4.41268942117227
H           11.38550747729051       17.72869917630511        3.25450890080578
H           11.34226860859897       15.27177237210642        3.15608228511197
H           12.68424208714200       14.14554503537359        6.74297928342749
H           13.42566508482587       12.84938812436216        8.69771009913562
H           14.72280904863264       10.78437849384754        8.38038303813187
H           15.28281524875177       10.02279403789792        6.11036276612522
H           14.55139534554747       11.33215319992651        4.16110501493065
H           11.83938479621811       11.26844441375954        4.02578603106240
H           11.07749598362049       10.12975527453061        2.00518612664210
H            6.44876201517038        4.44813903246709       -3.50018686822669
H            4.85659896711202        2.64460737687031       -3.14947585960959
H            3.42696691421933        1.31808129584752       -1.61749129491116
