47
 energy: -9.462794839766 gnorm: 0.000256093883 xtb: 6.5.0 (97a52f5)
C            1.58748418621397        1.66240678109322       -0.09891106887248
O            2.92111541395743        1.22670632132004       -0.22210945485571
C            3.10791332330233        0.11812136351163       -1.05317362096583
C            2.07448430935733       -0.51995403252857       -1.77641627211402
C            2.32755232301054       -1.60518866559247       -2.56030703294975
C            3.63446086736696       -2.13050476103126       -2.67495386409110
C            3.92159159747816       -3.25953313243098       -3.45986864377132
C            5.20539807587033       -3.76584118092181       -3.55100941860592
C            5.45750534111612       -4.90321764090217       -4.31126825016539
C            5.63316447652448       -5.93156446088143       -4.96556852596955
C            5.76720548881740       -7.10625775224981       -5.68802158052584
C            6.79672898712462       -8.01280765727995       -5.40899905629821
C            7.86613641433420       -7.70112099324355       -4.40123217007328
C            8.42379392073551       -8.94673717024897       -3.68431376132832
C            8.56704550135080      -10.14073663892867       -4.58456744903707
C            9.46101570823088      -11.15073596434534       -4.28227839565875
C            9.55698668094083      -12.27810114867305       -5.07715573090668
C            8.74771517009682      -12.41261496565240       -6.18878208586299
C            7.85246670459412      -11.42092184124982       -6.50764079295282
C            7.75157176606993      -10.27036484016288       -5.72382453505081
C            6.79934850233815       -9.23911768193480       -6.08085164934413
O            5.89964937169884       -9.50337469035927       -7.06469356229514
B            5.25330079544003       -8.34828525633515       -7.69481938972616
F            6.16898336935342       -7.74462224726206       -8.52338754502539
F            4.15447736052624       -8.75307717156158       -8.40676531719422
O            4.85902311188308       -7.38003205706390       -6.66538371581796
C            6.24355135747610       -3.12146081695956       -2.84499095236161
C            5.99696975845963       -2.02388099202661       -2.07605850988327
C            4.68765860909909       -1.49905256643328       -1.96350808122980
C            4.39526223288863       -0.38286307643245       -1.16684406920324
H            1.56474360949717        2.50359582308848        0.59546120048481
H            0.96969416838992        0.85639175582781        0.29997005861665
H            1.21506826569787        1.99277537463392       -1.06967858899386
H            1.07035703167915       -0.14338704341698       -1.70822830614616
H            1.52818922144653       -2.07955831272605       -3.10260443607303
H            3.12635545652715       -3.74657352269609       -3.99477791062526
H            7.47380167724898       -6.98889661389791       -3.66586337427306
H            8.67970602926435       -7.17653894174249       -4.91544101194951
H            7.76543021439919       -9.21889079562353       -2.85135592794293
H            9.39697981443046       -8.72005724859075       -3.23200655622293
H           10.08129004817674      -11.05711634558467       -3.40743012521193
H           10.25859095084215      -13.05613829878379       -4.82505176960778
H            8.81756631807922      -13.29501091486867       -6.80358659857425
H            7.21374142827952      -11.51356586324943       -7.36926845406965
H            7.24178712769911       -3.51707787831115       -2.92134637727418
H            6.79812245969985       -1.54544416952950       -1.54007904914670
H            5.18186545297460        0.10146793214173       -0.61905827083209
