36
 energy: -7.694864722398 gnorm: 0.000717697719 xtb: 6.5.0 (97a52f5)
C            0.99345181792089        0.30612038066599        0.00913837391038
O            2.22604400443628       -0.06021554901758       -0.56606737665685
C            3.03204025922675        1.00795652507039       -0.96518027367230
C            2.67626566621469        2.37344738956074       -0.82658455291192
C            3.51144687460976        3.36308484569270       -1.23463901203413
C            4.76728048627148        3.06459349799197       -1.81316181986633
C            5.65458520504891        4.06945113403892       -2.24404298384044
C            6.87028687149149        3.75837736553580       -2.80344977633576
C            7.75072419187329        4.77343991529289       -3.22712610051300
C            8.52191453569937        5.64754326037210       -3.59186984548007
C            9.41793869264000        6.64988221735974       -4.01469427226966
C            9.00501720860102        7.65382463612304       -4.88501528128035
C            9.88335302098676        8.63010933818452       -5.29751687939633
C           11.19074647036634        8.62616456659880       -4.85115161501998
N           12.12488346280894        9.66387095899818       -5.29430771679655
O           13.28972864097302        9.63737771492484       -4.86812963869572
O           11.71909874482268       10.53342119355258       -6.08075241938685
C           11.61203844467831        7.63445832284348       -3.98654805582461
C           10.73691558526162        6.65631511860349       -3.57184215418612
C            7.22944303405838        2.40092657807998       -2.94565636928213
C            6.39571643686473        1.40598921630915       -2.53962107279158
C            5.14101947955621        1.70769010491668       -1.96158943125022
C            4.25629434848990        0.70595445226947       -1.53037942283969
H            0.45784935576973       -0.60474952811240        0.28069943792505
H            0.39728294729094        0.86573921957143       -0.71340367097844
H            1.16511517933207        0.89864571100755        0.90935089052838
H            1.72768499466086        2.63035141711078       -0.39211314698871
H            3.22516511298060        4.39440180091673       -1.12158034298053
H            5.37580259568199        5.10159492059954       -2.13228491137807
H            7.98635852582764        7.65695403446927       -5.23339047787296
H            9.56685153785446        9.40779692560417       -5.97132507903256
H           12.63335776935544        7.64133462478392       -3.64614102554055
H           11.06572992229521        5.88326608981584       -2.89855928856101
H            8.18379369834822        2.16460836922924       -3.38395528273310
H            6.68343008412080        0.37531725327551       -2.65329723324508
H            4.52961479357619       -0.32700402225094       -1.63762217272494
