35
 energy: -7.656829610003 gnorm: 0.000350774640 xtb: 6.5.0 (97a52f5)
C            1.04738851831713        0.21713199659284        0.06489605397153
O            2.23160317639491       -0.39429634794636       -0.39338920188848
C            2.99519165618359        0.38362210141808       -1.26512842093224
C            2.65060694429244        1.68615617948826       -1.68477633066033
C            3.41579275262061        2.34598277745238       -2.59401683768644
C            4.58992500857638        1.76593502392257       -3.11889943961543
C            5.29464933054551        2.39116054854352       -4.17173712844846
C            6.36474489961107        1.79412783409282       -4.76863837338617
C            6.98225795564165        2.42437220481592       -5.85810702459848
N            7.49843054393605        2.93753086179209       -6.76326492005130
C            6.85407216594025        0.54130826934523       -4.26550947156287
C            7.94051218261013       -0.10044823882290       -4.91716268525423
C            8.46106311438340       -1.25596339309273       -4.45185089347152
C            7.99305660535867       -1.82234070183394       -3.23728730926517
C            8.61176504316479       -2.96424058632239       -2.69291027140318
C            8.25439760570333       -3.43282427489488       -1.46290141951366
C            7.29000595248991       -2.75966818762581       -0.71723132786432
C            6.66121746823041       -1.66074595504351       -1.23005072004202
C            6.93932812840122       -1.19054957982601       -2.53154938697819
C            6.26684167695707       -0.05316119623470       -3.13225631046927
C            5.02210244493220        0.50563021555510       -2.63432572171934
C            4.16478662130952       -0.17462929266033       -1.75723684912436
H            0.53397939816375       -0.47887913414222        0.72967513392495
H            0.39583144183504        0.44545337423072       -0.77999659640362
H            1.28861076302022        1.12414657929199        0.62129374618542
H            1.75743763541877        2.14907855158976       -1.30698680090672
H            3.11942401109156        3.32046970841938       -2.94244349414502
H            4.94510740921238        3.33620657736275       -4.54737319541233
H            8.33901238945962        0.34855936586411       -5.80964921245870
H            9.27469604420632       -1.73375220356810       -4.96968441462601
H            9.39014261618023       -3.45297482961648       -3.25331259418484
H            8.74001269436785       -4.30306280532604       -1.05269989862434
H            7.05271678696463       -3.10070001423051        0.27740619453739
H            6.00711066149630       -1.09574230438955       -0.59141509392856
H            4.35381835298291       -1.19879312420165       -1.50155978399316
