116
 energy: -24.290555150309 gnorm: 0.000886922899 xtb: 6.5.0 (97a52f5)
C            1.47373238103735        0.09048119342293        0.21921753130256
O            2.87950817970586        0.10712179837291        0.32555824608384
C            3.40777323675122        1.23756887940906        0.95859400981086
C            2.62464658822648        2.29959834366901        1.47948204488448
C            3.20206102240098        3.37087271728574        2.08253762587880
C            4.60765539947967        3.46394738301690        2.21200790601049
C            5.23468251226824        4.56452060933762        2.83113050998249
C            6.59773925834103        4.63885658885495        2.93797282686486
C            7.25163586243826        5.81692931353988        3.61680088728716
C            7.54669381921843        5.53354806013071        5.08434233044807
C            8.50703478344561        6.23424244292391        2.87120539931449
O            9.57748562064930        5.77418076013205        3.19297647099816
O            8.26799388689844        7.10712828062678        1.83135163826882
C            9.33574540402848        7.61823525460270        1.09523343120707
C           10.67942972373985        7.53498267298234        1.46967810702817
C           11.66758163032529        8.09789278926557        0.70881353457320
C           11.37067983126825        8.77415155362667       -0.48495833243249
C           12.43119128254725        9.39644896265329       -1.30194266879408
C           12.29397629873051       10.75559175578474       -1.70639986674282
N           13.11665127634572       11.46777773859596       -2.50980657386089
C           12.56563824626204       12.70051503289586       -2.61680632574716
C           13.01403446234924       13.78972787123968       -3.41057522742648
C           12.21162865551741       15.03796924125476       -3.45255003296916
C           11.97937026743852       15.78840593970774       -2.29528276132394
C           11.23282481293042       16.94269013106812       -2.33889369701625
C           10.68498615739819       17.39284296362214       -3.53279787237759
C            9.89792668175477       18.65605759126922       -3.58285089711430
C           10.92135607294365       16.66065862512144       -4.68849531620176
C           11.66704370680580       15.50551728353723       -4.65290858652479
C           14.20989392839455       13.71922208865670       -4.16567588113903
C           14.70855370534917       14.76021048837913       -4.98820401408897
C           15.90423762649806       14.36008417407912       -5.50163290795270
C           16.19151587387809       13.06631836155342       -4.99841533627941
N           15.13187087445206       12.69575981199074       -4.19943923783356
C           17.36715484634545       12.32965684849547       -5.28412382781134
C           18.40476860822914       12.93945470400127       -6.14996834877900
C           18.82658033789677       12.30898370230818       -7.32499571745137
C           19.78875924260281       12.87750086159301       -8.12659287210164
C           20.37265422289125       14.09091046469979       -7.78817130351132
C           21.39539276390780       14.71618593879270       -8.67166131400274
C           19.95185366558584       14.72895600937538       -6.62905720244639
C           18.99000032652663       14.16672362408744       -5.82259665430733
C           17.58005944082620       11.02914926368580       -4.75475973271307
N           16.73412385288595       10.29646824098109       -3.99411837610183
C           17.36939392640667        9.12745115910144       -3.74449538986935
C           16.86745637034010        7.99840627313684       -3.04637985177642
C           17.71324768874713        6.78422668225844       -2.92925986929880
C           18.95155239657007        6.82809447532123       -2.28023103414264
C           19.73475941162787        5.70262344254174       -2.17372799841067
C           19.32042769510885        4.49207401225763       -2.71272485327754
C           20.16183457695681        3.27116721326206       -2.57402671623630
C           18.08725068816436        4.43687076518218       -3.34862940382749
C           17.29837079292514        5.55818402227528       -3.45915329663416
C           15.57654391069279        7.99639230587453       -2.45967252519106
C           14.99615576912557        6.88948873528784       -1.79474106546654
C           13.77811350567410        7.27064899634911       -1.31879973384792
C           13.57654273932711        8.63199440183788       -1.65391834540729
N           14.68277754696289        9.04160675730582       -2.36561814566984
C           18.66587760352508        9.12516624356960       -4.35863268849875
C           18.79968499488553       10.30762513127972       -4.97828203855333
C           11.36474451232649       12.77654934174876       -1.83906946237524
C           11.20258211988314       11.57456922250419       -1.26489900950737
C           10.02154108619618        8.84497715400150       -0.86670845199690
C            9.03673219737776        8.28857086517090       -0.09709176994729
C            7.38121873854402        3.58612601051002        2.43416259761374
C            6.81188029539052        2.50641308206632        1.83211944002411
C            5.40752081200173        2.41537719154574        1.70101355004519
C            4.78149488962922        1.31907142431501        1.08174018128571
H            1.17296949618749       -0.82295886541320       -0.29563947921964
H            1.13222414925738        0.94957620424168       -0.35989767787339
H            1.02450697576368        0.09714047787264        1.21329407916321
H            1.55409416638707        2.25613933499891        1.39580424691981
H            2.59235639299167        4.16805078482324        2.47169032205581
H            4.62688762873721        5.35932330067997        3.22431488071207
H            6.55585434873423        6.66740904292074        3.55173313666685
H            8.25312055802944        4.70862077098135        5.17283804462926
H            6.64283539859157        5.25813259466089        5.62906333997045
H            7.99161140444205        6.40017577011364        5.57437035850410
H           10.92709169455543        7.02207964699104        2.37947135102816
H           12.69191210873775        8.05082243676413        1.03618698944335
H           12.40732922037987       15.45492239498105       -1.36559949960155
H           11.06932982477643       17.51228000653577       -1.44015344547365
H            9.43991609835506       18.87413051573450       -2.61747664252161
H            9.09773647272050       18.59056270871960       -4.32092711979667
H           10.53590392388127       19.49885640331276       -3.85095505391103
H           10.51072245928463       17.00853284761623       -5.62087487040099
H           11.83051264002441       14.93830369360031       -5.55301753010924
H           14.22998043026535       15.70920465995647       -5.16125042107757
H           16.52908899163173       14.92996834518275       -6.16827722352621
H           15.05146372750528       11.80731384664649       -3.69226198628910
H           18.37394806775925       11.37280118151005       -7.60321876789498
H           20.09649114144487       12.38280097777500       -9.03184018999312
H           21.96046470867600       13.95930499542978       -9.21673744447792
H           22.10660982726363       15.30664164330412       -8.09300232008316
H           20.92457026080339       15.37587150767819       -9.40127351702592
H           20.38960335560058       15.67636837700844       -6.36495913194121
H           18.68405863998689       14.66332435857357       -4.91792712346779
H           19.27956727572436        7.75887511185248       -1.85038581614394
H           20.68208223137841        5.75152452584712       -1.66465572230034
H           21.22294104382689        3.52303773577724       -2.57408450938749
H           19.98727337655871        2.57679156977700       -3.39660947914971
H           19.93895044276720        2.75181411187321       -1.64138118224728
H           17.75157913078845        3.49985234212036       -3.75878352239955
H           16.35179289857789        5.50637859199339       -3.96900284946580
H           15.44764896494658        5.91933498540268       -1.67441997465064
H           13.08929677612130        6.64232909790103       -0.78017246447774
H           14.82514396078903        9.98021714195706       -2.75525917092579
H           19.38631230035347        8.32472053010916       -4.33703005367389
H           19.65817309828905       10.64921368943117       -5.53208923617753
H           10.71259926547403       13.62831355401956       -1.74229597081069
H           10.40909217675766       11.28724851714588       -0.59564304158628
H            9.76967591865678        9.33628681103415       -1.79081860356568
H            8.00562228462525        8.35719704100976       -0.39523907187510
H            8.45121872408112        3.65539835111073        2.52638243278687
H            7.42511321884668        1.71022981780180        1.44709718326874
H            5.38067215298833        0.51847524117651        0.69017801439575
