80
 energy: -16.863786862731 gnorm: 0.000777757625 xtb: 6.5.0 (97a52f5)
C            0.23842197170058       -0.95086936982256        0.76434356863887
O            1.06333234184230       -0.12762433456077       -0.02964342331368
C            1.90934626016127        0.70796540714921        0.68037173102654
C            1.98382186029294        0.75852158108150        2.09990090801301
C            2.83576307769484        1.60415762545359        2.72959699818062
C            3.68406112070748        2.47054797679440        1.99298678528377
C            4.57169054141105        3.35329495960441        2.62010002550115
C            5.39966597610705        4.19354003867642        1.89404957059324
C            6.31162222534561        5.10045570580163        2.57192274832068
N            7.38318700624405        5.78161901637824        2.06113475124285
C            8.03435807695763        6.51601574719089        3.01867016328054
N            9.12253576054153        7.27539001943166        2.88790196061079
C            9.65640250518410        7.23922750932392        1.66679248796468
C           10.88511346533319        7.87565574760436        1.26900682432407
C           11.71717996887225        8.74911121663934        2.09319629081173
C           13.01476678810907        9.09288590485613        1.70995970337475
C           13.78227508913019        9.92798602084017        2.49051290751553
C           13.27427044121023       10.44226116356975        3.66712271636476
C           11.99269283155427       10.11596153132517        4.06286836659486
C           11.22728430775980        9.27851708099367        3.28579466576455
C           11.11894224103567        7.51795616706959       -0.04845506621812
C           10.06983393764868        6.69479156362116       -0.50124396297932
C            9.96326283009460        6.11494381406362       -1.82950282781719
C           11.07946187845316        6.09905161621662       -2.70284823044565
C           10.99769587106131        5.56065272678015       -3.94695837155532
C            9.78502898953457        4.99427879076373       -4.41395417263030
C            9.66421199227229        4.42931595816281       -5.68672223351173
C            8.46865468941895        3.87495295321488       -6.13417982517883
O            8.45116924672120        3.33845732030937       -7.41087213898841
C            7.21525412402225        2.78632319576778       -7.80622918000996
C            7.35030439535185        3.89610805232338       -5.25492182757643
C            7.44084151637689        4.43850545943483       -4.01594004914763
C            8.65670246727457        5.00392889104683       -3.55417305334199
C            8.77671059482310        5.57061627686399       -2.28176868527499
N            9.21730739309049        6.55843393239826        0.56065100705481
B            7.89141711814445        5.79432525876172        0.61665269915400
F            8.10206477647356        4.48781267864418        0.20347885291977
F            6.96719743939056        6.46182710265979       -0.17358272835619
C            7.31109663037974        6.28711110151744        4.24240257992616
C            7.63414098955476        6.82955677810237        5.56006445041421
C            6.73652948425920        6.73758774707891        6.62534138140215
C            7.06132604706531        7.23852587934738        7.86613893824744
C            8.28741400013783        7.83852058619043        8.07491224227741
C            9.18958844337018        7.93859282143249        7.03502788896119
C            8.86372298435222        7.44216124445061        5.79472439791800
C            6.27138492867516        5.42259328650970        3.94214430233113
C            5.32281375176093        4.14461007253874        0.48355242257833
C            4.47600792184534        3.30108941155669       -0.15844390264997
C            3.62806714658043        2.43466677794017        0.57518089652830
C            2.74061762489686        1.55298498424887       -0.04881343713475
H           -0.38762322742036       -1.55335223159574        0.10482831272553
H           -0.40437764293892       -0.33615785272524        1.39589362358904
H            0.85172756209142       -1.61663364394704        1.37319824522162
H            1.35322426951930        0.11422439974627        2.68464791948778
H            2.87876163386856        1.62988671747351        3.80478357824968
H            4.61450533093627        3.36210864863470        3.69312749023678
H           13.41983661315511        8.69059420839552        0.79831791910079
H           14.78340421969523       10.18145516810979        2.18230358991943
H           13.87716473544435       11.09621467085982        4.27552144681648
H           11.59275596835599       10.51654022312497        4.97988894295166
H           10.22860321544647        9.02554074099128        3.58657348603026
H           11.94797349184058        7.85415001873803       -0.64469871035599
H           12.01279404404770        6.51084972909281       -2.36243761017995
H           11.85718484700038        5.55473581037694       -4.59457610850414
H           10.51192458009488        4.41676556635878       -6.34575923094781
H            7.32102390785877        2.38915018785617       -8.81673296803821
H            6.44594686276587        3.55977298030820       -7.80972666176864
H            6.93892248422426        1.97228375717517       -7.13464299665205
H            6.41630769364981        3.47504280077149       -5.57878799746172
H            6.58649559234346        4.44643741654524       -3.36141701320373
H            7.91703386502719        5.59418081697204       -1.64305861142960
H            5.77693534460319        6.27722182080013        6.46949223549532
H            6.35597908927952        7.16239888544091        8.67748708681219
H            8.53943028041261        8.22814816242456        9.04757622890276
H           10.14786219969128        8.40503067009459        7.19488904420664
H            9.56313105034282        7.51353579408689        4.98434287526584
H            5.55020855363463        5.05215204274554        4.64802379425477
H            5.94971361599648        4.80717881511238       -0.08077643470930
H            4.43584005081385        3.28262548829347       -1.23363284505305
H            2.69008669794773        1.51944519041172       -1.12091074793487
