31
 energy: -5.897650134045 gnorm: 0.000948750678 xtb: 6.5.0 (97a52f5)
C            9.55396318440915        5.85375222201510       -8.31054435160636
O           10.28841693693040        4.68480840616898       -8.03109727222811
C            9.52032514800833        3.58381008162894       -7.64172816641953
C            8.10578771314401        3.59113408564927       -7.54223100307932
C            7.42190337514530        2.48483165063622       -7.15229123799289
C            8.09889405696985        1.28554065917845       -6.83068787490357
C            7.41597251342725        0.12519158624153       -6.41281850946151
C            8.09047077588314       -1.02582637374282       -6.10494345877211
C            7.34572347373763       -2.24230722636022       -5.60887900876961
C            7.27088922112291       -2.26937655784090       -4.08734395292302
C            7.97607515896112       -3.52246698491503       -6.13378795569857
O            8.98835272012449       -3.92771650274260       -5.60236681582681
O            7.37319595495135       -4.13084938584977       -7.19172311360255
C            9.49270586300419       -1.03883999661909       -6.19913787866146
C           10.18697038874219        0.06090953296825       -6.59808245978533
C            9.50934790177903        1.25633760164310       -6.92528229667343
C           10.19021673161529        2.41618919308515       -7.33365450356347
H           10.25415608353402        6.64107675365284       -8.59304254891278
H            9.00595326664659        6.16869939061190       -7.42161733975836
H            8.87018679699232        5.67387784796803       -9.14088481449853
H            7.56482411233935        4.48892594602411       -7.77874657851985
H            6.34834382952056        2.50849754544218       -7.08104414754404
H            6.34476936555805        0.15177285695771       -6.32857747550045
H            6.32182272926491       -2.18832065691120       -6.00515274060385
H            8.27202096440935       -2.34243412588645       -3.66456027291636
H            6.70114057129689       -3.12879043226148       -3.73295905267403
H            6.80776830137673       -1.36456522964188       -3.69363468664633
H            6.57925529240683       -3.64351118109727       -7.48431313342717
H           10.01232048231314       -1.94814058033204       -5.95238059891117
H           11.26040481506341        0.03239201255776       -6.66758756392513
H           11.26140227131990        2.40551786177529       -7.40680918619866
