63
 energy: -12.678799470476 gnorm: 0.000662919364 xtb: 6.5.0 (97a52f5)
C            2.33571669490322       -0.21439625749105       -2.54682351606847
C            3.31634783013759       -0.50889256188894       -1.45757152478812
O            3.15567439768546       -1.49624609470929       -0.77606649459919
O            4.32093782862501        0.38879385189649       -1.33421629598237
B            5.38557726357069        0.30201928018890       -0.31902647339373
O            4.82008902418455        0.41481760502960        1.03412939939942
C            5.54343511640413        0.40642539958008        2.17874599752381
C            7.02683580385370        0.25803461198270        2.07592261840135
O            5.05061239105720        0.52076529091386        3.28012338801830
O            6.32042626301984        1.42727346402477       -0.55125967117369
C            7.22977499152247        1.30081149588978       -1.54877596162289
C            7.84511663140611        2.47471318771572       -2.07046334465296
C            7.52895897410490        3.69867434237002       -1.58842837739536
C            8.06144733702753        4.95626473053319       -2.03321301269614
C            8.95651058545361        5.01317133633101       -3.09615519258658
C            9.47812809290974        6.21454071110752       -3.55140713424924
C            9.12330077609573        7.39486305835889       -2.96120365213676
C            8.22183528532111        7.41320240550805       -1.87809483481200
C            7.85091683969958        8.62825425769842       -1.26228326479224
C            6.98137431041664        8.64104428273293       -0.21230344213983
C            6.44691080824385        7.44689533425001        0.26750250825119
C            6.78516899086403        6.25372278622632       -0.30749270065837
C            7.67853778801205        6.19242713000048       -1.39722221262804
C            7.56603629664233        0.04670054655968       -2.04096631801223
C            7.02251516014346       -1.09887097122924       -1.47212768994320
C            7.40886030396216       -2.41754338735925       -1.86713742607271
C            8.40713766538133       -2.72291968174649       -2.73382386484296
C            8.77659724451425       -4.05202704914048       -3.14125354659864
C            7.94304086238980       -5.13338221366052       -2.87474607157698
C            8.26537915570860       -6.42262700263125       -3.27049188601482
C            9.42872617424809       -6.67363214873809       -3.94197869224500
C           10.32358004028880       -5.62720870183459       -4.24275521679336
C           11.53308348656512       -5.87917625836903       -4.92576051370705
C           12.40272511441228       -4.86584198771656       -5.20064926829975
C           12.10572925192728       -3.56277703298303       -4.80590972106369
C           10.94166765765150       -3.28544318643866       -4.14513712056477
C           10.00991485843646       -4.30061640706290       -3.84559596798365
O            6.09857242583489       -0.98440986472870       -0.48327916851948
H            1.34414011743589       -0.04566987815062       -2.13092995274154
H            2.27676462397019       -1.04920352721153       -3.24269716286919
H            2.63428426800650        0.67527551850894       -3.09860565856162
H            7.32765119639264        0.07134022524398        1.04771571323550
H            7.36914762202211       -0.57304521614091        2.68929656553962
H            7.52436256256197        1.16335411614799        2.41816968757209
H            8.56787636550059        2.36368390462594       -2.85597353137353
H            6.79980140353486        3.71116603552820       -0.80029521463231
H            9.25158100778695        4.10490670330954       -3.58893939928842
H           10.16825874661583        6.21664365986077       -4.37931037443960
H            9.53035675369109        8.32458449778205       -3.31890643818274
H            8.26553308186786        9.54927563186740       -1.63371112817976
H            6.70591243501289        9.57481849063567        0.24990106513793
H            5.76222546910130        7.46773475756789        1.09940894988154
H            6.35932309109371        5.35068279342027        0.08856829242468
H            8.28048248063092       -0.02565017934761       -2.83777085601605
H            6.86893085446200       -3.21316977608469       -1.38989324268953
H            8.97237327884712       -1.90929372097149       -3.14344798654810
H            7.00733146385356       -4.96834074762352       -2.37227270731734
H            7.58913916343829       -7.23252423362246       -3.05035278599197
H            9.67409958991467       -7.67615650262651       -4.24652605263260
H           11.76341895854805       -6.88700862153213       -5.22470351945330
H           13.32419031023298       -5.07089270038792       -5.72049584658700
H           12.80295829531988       -2.77017377708706       -5.02206500169608
H           10.74777713750906       -2.27379175490238       -3.84002774759233
