30
 energy: -6.045039928881 gnorm: 0.000751059530 xtb: 6.5.0 (97a52f5)
C            1.45002100907342       -0.78873677787116        0.18963931188008
O            2.42770830937378        0.08394466551397       -0.32653778148030
C            2.92434599245298        1.02004444686900        0.58088788259289
C            2.52721588493503        1.10460694531326        1.94226402837498
C            3.04728407547257        2.04525122773546        2.76989088074302
C            4.00714671552372        2.97729812826937        2.30410647659433
C            4.55387288430097        3.96519637144748        3.13199769773009
C            5.48484390970448        4.87328689062036        2.66175946909549
C            6.05278217892777        5.90392485659526        3.49526036539280
C            5.65053294994728        6.04253989842312        4.92250887059267
C            6.95058463315455        6.74506552754742        2.95512770733223
C            7.37459322461416        6.65733273632794        1.57034736965153
O            8.19885320220280        7.46150793208928        1.15983595179134
O            6.83802979975149        5.67640440659991        0.76490802217817
C            5.90410563235346        4.79946434908984        1.30084290041586
C            5.36911019630764        3.82682640397016        0.47940774561843
C            4.42093558574602        2.90687806120958        0.94826939251786
C            3.86257040218195        1.91980223963104        0.11591926744928
H            1.12599728438102       -1.45378871154964       -0.61220313468588
H            0.59212516742698       -0.21600658570879        0.54385901964122
H            1.87668602632308       -1.38569637962045        0.99656649785664
H            1.80037546102167        0.41141617053087        2.32408031045694
H            2.73305483252997        2.09547277720955        3.79803782106896
H            4.23284329820355        4.01385477315694        4.15589199900588
H            5.87287634392747        5.13217799650451        5.47996543055612
H            4.58261754661946        6.24633779632606        5.00770369694350
H            6.18104484807881        6.86251759732802        5.40734065860292
H            7.38571311031687        7.52355621116902        3.55296644105878
H            5.69279670069085        3.78531863821581       -0.54371374421226
H            4.16578279445648        1.85699140705776       -0.91233055476332
