23
 energy: -4.519189803274 gnorm: 0.000992517001 xtb: 6.5.0 (97a52f5)
C            1.08336963393174       -0.05932958850737        0.04866367180616
O            2.49123760384921       -0.00774831660556        0.06526550700726
C            3.12658587057626       -1.25429753089972        0.07253418316149
C            2.44576430298207       -2.49716918921344        0.06407961795960
C            3.12619127638282       -3.67451026502442        0.07036231424326
C            4.53727079457807       -3.69881580610648        0.08645909429015
C            5.27371717980531       -4.90399352309921        0.09347225802131
C            6.63305992857013       -4.89118548055204        0.11122372992203
C            7.35308358028881       -3.67162533446871        0.12338771755759
O            8.73531645645953       -3.64600489345073        0.14403957204010
C            6.64601408732936       -2.48618267411109        0.11543500124812
C            5.23910281577440       -2.46884844828576        0.09683862821114
C            4.50739763414424       -1.26700711608437        0.08904943946479
H            0.69840958124121        0.96106651630908        0.04038973427177
H            0.71912409880600       -0.56663436988643        0.94297033401055
H            0.74037272609243       -0.57277967001209       -0.85050315369112
H            1.37155301708507       -2.50954982458869        0.05306144189815
H            2.59267300593456       -4.60912335364100        0.06358263046827
H            4.73975121272229       -5.83825356914933        0.08443573475281
H            7.18127406562634       -5.81589352050642        0.11646790233100
H            9.08851285913974       -4.55672560360501        0.15499971462129
H            7.19054455451138       -1.56091721671821        0.12438817504334
H            5.02901371416902       -0.32849122179300        0.09567675136092
