22
 energy: -5.625209259761 gnorm: 0.000427639778 xtb: 6.5.0 (97a52f5)
C            1.05778442448503       -0.09318057296554        0.12618699552522
O            2.32756992134887        0.47038223433477       -0.14109689465011
C            3.01761720398440        0.93053822939437        0.99531273501936
C            4.26922424014347        1.56449947775112        0.78675835602910
C            5.01040899632420        2.04630041100792        1.82703325111008
C            4.55335437110027        1.92850013918278        3.15574574280760
C            5.29791553646089        2.41907370288379        4.26163449184422
C            4.83473311336515        2.29019440360907        5.53075985366145
C            3.57383431200157        1.65328283848385        5.81339639886684
O            3.15192663388400        1.53770997290466        6.99409726311874
C            2.83750898408772        1.16827704717150        4.71183925752015
C            3.30146824250192        1.29375031990128        3.39439919036839
C            2.55825088885908        0.80689605704571        2.29441734586961
H            0.59095357914151       -0.38909225660033       -0.81385137202325
H            0.41396226038548        0.63879661662652        0.61470485511593
H            1.15945771811887       -0.97826187038160        0.75462545022624
H            4.62566920327534        1.65899381481744       -0.22555128632753
H            5.95878712397543        2.52541347921975        1.64295916104154
H            6.24483944963467        2.90002930105977        4.07540579400152
H            5.40589479120095        2.66543973267542        6.36290065921200
H            1.89336238845216        0.68907135069656        4.89763978022322
H            1.61437661726889        0.33145557118106        2.48964297143965
