51
 energy: -10.533584218583 gnorm: 0.000764948846 xtb: 6.5.0 (97a52f5)
C            0.64515917054128       -0.75391005775534       -0.05277617905854
O            1.98292429668016       -1.08720510289602        0.25367063317019
C            2.81991491626152       -1.25603238679098       -0.83970161951527
C            2.38030085233817       -1.07681249563023       -2.17624427405406
C            3.22092063875403       -1.22283787776540       -3.22824894037032
C            4.57410127542454       -1.59219618814265       -3.03488577630392
C            5.44103833774197       -1.78582373170412       -4.12835072355661
C            6.72771706032983       -2.19710205488236       -3.93451061396163
C            7.19575623153662       -2.44386951270844       -2.64369330056326
C            6.38022956706923       -2.25541240320019       -1.56548203298054
C            5.05289056785429       -1.79940779510553       -1.71817198227032
C            4.17217233035639       -1.59072275108610       -0.60143365358062
C            4.64680970634543       -1.69547435357479        0.77419281715265
C            5.84769439936085       -1.28547643332377        1.26147686409617
C            5.94849318661169       -1.54146372831826        2.67859437763926
C            7.16418945977225       -1.24213298690235        3.46658336853785
C            7.62705845886126        0.06675453813155        3.58771165933548
C            8.75661793570315        0.34681575413344        4.32487734179628
C            9.44688521924831       -0.67333448287898        4.94928576489700
C            9.00674283787622       -1.97697588625000        4.83242148979449
C            7.87760563350059       -2.26127139468176        4.09626900208640
C            4.77909195103130       -2.11096836317453        3.12504049289250
C            4.40159542471282       -2.46527107310809        4.48823938318929
C            5.09315404799603       -1.97619081815926        5.60060210137618
C            4.70883230353112       -2.30673061008135        6.87997026993918
C            3.62053070153069       -3.13137680873302        7.08585510723739
C            2.91454878655550       -3.61906951541646        6.00392772358856
C            3.29577141339208       -3.28921330864765        4.72273642829607
C            3.87412561550252       -2.25843351671076        1.93344463422098
H            0.08413443913450       -0.66665503268995        0.87855644858396
H            0.19226324115907       -1.53887815535071       -0.65996122456128
H            0.60622586123424        0.20334192141616       -0.57440339643470
H            1.35742807578524       -0.80492006392041       -2.36192106668830
H            2.86439892552097       -1.07323435974059       -4.23301066185822
H            5.07081381961489       -1.61246477104307       -5.12422850639072
H            7.38064485937762       -2.34650253430974       -4.77891047979872
H            8.20559150243107       -2.79265277847099       -2.50055568197980
H            6.74453017293421       -2.49534083693923       -0.58337048383504
H            6.60871065863375       -0.78597750944025        0.68917827108100
H            7.08391356286665        0.85877053698739        3.10127808962733
H            9.10215474797876        1.36387889292881        4.41407710705938
H           10.33033881012058       -0.45213343794765        5.52571373315561
H            9.54679968626132       -2.77317696765820        5.31830234878426
H            7.52947778160109       -3.27559447055305        4.00223737034298
H            5.92905556789613       -1.31782593563281        5.45203169546750
H            5.25701026563036       -1.91964791748347        7.72350506727571
H            3.32025183574608       -3.39044914367176        8.08805123450284
H            2.06203366030423       -4.25919978244260        6.16351528906210
H            2.73946176209241       -3.67210239103998        3.88490433391470
H            2.93988420268747       -1.70643045785616        2.08543041612052
H            3.62376423457200       -3.31024945977825        1.75240973352341
