38
 energy: -7.395386780563 gnorm: 0.000743376769 xtb: 6.5.0 (97a52f5)
C            1.07530304171003       -0.35565948242929       -0.09142654609391
O            2.00890303175953        0.58094908485501        0.39482505345958
C            2.82826154374565        0.11465037630405        1.42918972132860
C            2.76661542640671       -1.18791027260462        1.96994789552501
C            3.59774074558656       -1.58429634283695        2.98198267487223
C            4.54005645657736       -0.68550719624343        3.50587201386239
N            5.43339735876666       -0.95861898546532        4.52248571687122
C            6.18275347670106        0.07538963388929        4.79304905682632
N            7.15298517324324        0.09562967324934        5.75062630933161
N            7.80065573181415        1.13853809173668        5.96443203280328
C            8.80256955825880        1.18044493197750        6.91066481209369
C            9.49839150162738        2.36373095054706        7.15631072728640
C           10.49470787276457        2.40691141195682        8.09741403906495
C           10.84227631343655        1.26873031955001        8.83529739575812
N           11.86338085674737        1.31337212312395        9.80098973781685
C           12.53059270819843        2.56680182449790       10.15351771213698
C           12.30205917579244        0.11103751908699       10.50973437252721
C           10.13841426211578        0.08522785568535        8.58153752896436
C            9.14132432476626        0.04395133671022        7.64119807112573
S            5.84313684160860        1.50002801966266        3.79731902050460
C            4.60506654262336        0.60900141374601        2.97245246590047
C            3.76337092607269        1.00419380013066        1.95175853831814
H            0.49520400526253        0.11432798842709       -0.88684808066412
H            0.39829663484039       -0.65651569357520        0.70932840471777
H            1.59664163704911       -1.22278343792493       -0.49944338477160
H            2.05098449562074       -1.88757084437303        1.57895052268073
H            3.54385140238803       -2.57847162894466        3.38855358992122
H            9.23821875378439        3.24254073030148        6.59269998545649
H           11.02280489839005        3.32798624079519        8.26695661147499
H           13.12859567251481        2.91831736175186        9.31515650213105
H           13.18535371052579        2.43361838813068       11.01197088793650
H           11.79178179294355        3.32353152987588       10.40955710429529
H           12.54309545819191       -0.67530253533836        9.79737389194629
H           11.51446015407361       -0.23691008832935       11.17504162115469
H           13.19189057855312        0.30997141292010       11.10302240877013
H           10.37722824702363       -0.80230464083428        9.13942091287585
H            8.60166136917491       -0.86692744201433        7.45207796184644
H            3.82572831934180        1.99986657200202        1.55429270994363
