20
 energy: -3.864504208086 gnorm: 0.000527140653 xtb: 6.5.0 (97a52f5)
C            1.02548257782306       -0.11978400650303       -0.08784294556057
O            2.25142932734480        0.56064946726826        0.04239138987613
C            2.94420245548734        0.30637697668571        1.23638970414078
C            4.19017979348325        0.93955169824831        1.40378989578417
C            4.94794800344569        0.75914153473619        2.53111720489669
C            4.47920220200737       -0.07748869637081        3.55295936468190
N            5.13793963030365       -0.34646157766229        4.74006987515700
C            4.45857581830233       -1.16253789499859        5.49754870032701
N            4.87984053301438       -1.59897368608433        6.73012724290619
S            2.91198489353332       -1.67818625159449        4.79831900993410
C            3.24015688399798       -0.71078433213918        3.39161693822907
C            2.48013992257005       -0.52430179196029        2.25309430311736
H            0.59078793396063        0.13678739791955       -1.05494891854397
H            0.34158692213611        0.19237034805035        0.70253770996958
H            1.19210342824684       -1.19709201270097       -0.04788921225700
H            4.53907739060515        1.57783781349835        0.61159087467992
H            5.89860529394346        1.24778653845339        2.64783777193757
H            5.68198583387865       -1.19856356146702        7.17679344648101
H            4.27922176574823       -2.09962432884678        7.35897541128777
H            1.53645939016722       -1.02849363453231        2.17006223295547
