43
 energy: -9.013334726805 gnorm: 0.000197803809 xtb: 6.5.0 (97a52f5)
C            2.04099449523433        0.17889913530183       -1.46782176076888
O            2.70655262529704        0.12665408088336       -0.22592787982523
C            3.07462212506173       -1.16065126449338        0.18875557684656
C            3.64690949160438       -1.30006481087551        1.45670397288885
C            4.01875094359336       -2.53565039887974        1.93596133794337
C            3.82936708636663       -3.66388043494669        1.16811835068130
C            3.26795845089748       -3.56399671768871       -0.10320593462870
C            3.05399812581394       -4.74546948936604       -0.93710010673979
N            2.81439185205592       -4.70013902492137       -2.24343742798068
C            2.65264384451883       -5.97673978843814       -2.64833232532419
C            2.32839515995984       -6.35153684343382       -4.03423594426637
C            1.45206792951406       -7.39656870281424       -4.32277015613698
C            1.15718097548928       -7.72748694062235       -5.62643913865769
C            1.72479165633368       -7.01803543095114       -6.66617722493710
C            2.58404478164854       -5.97092574217921       -6.39806635689528
C            2.87956866765801       -5.63711100891708       -5.09494203745140
C            2.80059458858460       -6.84859626229877       -1.54376891135590
C            2.75103337697654       -8.31390826745795       -1.50613861054556
C            2.17973250907772       -8.96708040489917       -0.41564547440932
C            2.13079056179638      -10.34247244770872       -0.36552413507967
C            2.65719081961673      -11.09221933674616       -1.39876985460333
C            3.23800893839778      -10.46218798125238       -2.48160592383701
C            3.28865057634336       -9.08724664332490       -2.53486689039999
N            3.04885450201045       -6.04658740444430       -0.47029480931848
C            2.90392464094084       -2.31191408014824       -0.57828865965643
H            1.75082098306087        1.21162265921543       -1.66568374290863
H            1.14225826478963       -0.43880658556869       -1.43605769016500
H            2.70709284418277       -0.15838883630446       -2.26306364695740
H            3.78694120161112       -0.41606314628661        2.05315127429212
H            4.45912268267489       -2.62101636940701        2.91590568642875
H            4.12609245601491       -4.62796322200400        1.54066148665342
H            1.00240741506696       -7.94143636158803       -3.51106368839598
H            0.48208934405554       -8.54110327673405       -5.83541860160802
H            1.49453607972667       -7.27902963501711       -7.68617814654161
H            3.02405599725173       -5.41440240205619       -7.20929735229335
H            3.54676864626108       -4.82084348068944       -4.87914179764237
H            1.76511004683067       -8.37984887634508        0.38514977432978
H            1.68024740943634      -10.83424941244523        0.48102120074905
H            2.61652564833143      -12.16844317867401       -1.35891028344691
H            3.65225690706629      -11.04736967638723       -3.28619365352331
H            3.74913337340044       -8.59413576055328       -3.37334301072877
H            3.20304880305260       -6.35582437357057        0.48891241540054
H            2.47815317239678       -2.24758185496955       -1.56046989918312
