40
 energy: -7.625171887618 gnorm: 0.000707769321 xtb: 6.5.0 (97a52f5)
C            0.60770384055048       -0.46593355592404        0.52081517854261
C            1.99461782334660       -0.08513395036793        0.21883183737747
O            2.38525794484969        0.44032676874839       -0.77993613392387
B            3.06127967797160       -0.45462075072812        1.37204203905546
C            4.47241231159227        0.27934043962335        1.08635251529254
C            5.24692310669638       -0.27225820630625       -0.03497371127159
O            4.79717010764040        1.19624108498654        1.77651137205351
O            3.29339460574719       -1.92204186444433        1.34602425250741
C            3.69518238314556       -2.50379077686145        2.49338766845753
C            4.23904093830169       -3.88129768798322        2.43080454834610
C            3.60618862662536       -1.85307419563056        3.69477586627976
C            3.00822742042309       -0.58966293038072        3.79626929839145
C            2.84431052285527        0.09950023610349        5.04996773661547
C            3.26010661979711       -0.43568624378378        6.29503521910570
C            3.08301057944464        0.25795623162586        7.45372558071532
C            2.47732600505350        1.53767045173382        7.45242345259925
C            2.28237524994445        2.27768634132655        8.63122736104641
C            1.69227186683870        3.51531496026384        8.59042637830196
C            1.27524379612014        4.06126329518159        7.37734455067008
C            1.44872235279760        3.37055001334508        6.20896129593904
C            2.05273099497698        2.09329871043325        6.21291119676820
C            2.24837589615285        1.35790894814974        5.03789163531461
O            2.53662562683654        0.01552135528887        2.67621318681775
H           -0.06853815446478        0.36263833227732        0.31630870103540
H            0.50513727066622       -0.74280369247757        1.56981506809575
H            0.30308515286113       -1.31485360135963       -0.08941643264491
H            4.73019528369509       -1.12411981466379       -0.47595455398506
H            6.22878955545735       -0.60105198788690        0.30244332042181
H            5.38365238401404        0.48150563536360       -0.80903195709994
H            4.23064674269556       -4.24240332547961        1.40291849579682
H            3.64078153464986       -4.56427621707583        3.03377190192775
H            5.26677058088590       -3.91221509035183        2.79233139066403
H            3.96512548874648       -2.35076252120682        4.57455657570017
H            3.72225705909405       -1.40514801007117        6.32932335314208
H            3.40409183762128       -0.16242110603200        8.39085278461809
H            2.60311037415920        1.86041542225155        9.56978385767907
H            1.54952284626199        4.07173264726038        9.50200929493468
H            0.81327347138323        5.03459297961103        7.36192001350644
H            1.12662216580178        3.79391489420812        5.27353744661192
H            1.93815810876291        1.77028678123766        4.09522841459652
