47
 energy: -9.104780175787 gnorm: 0.000985135105 xtb: 6.5.0 (97a52f5)
C            2.34000717016294       -0.31405087333293       -1.03913851475416
O            2.13208740402125       -0.00642770857208        0.32083027311656
C            2.57470799360789        1.25487515100087        0.73503065099440
C            3.19031176478523        2.15143104809192       -0.12907267466889
C            3.63380620484301        3.38337767474982        0.30718263497098
C            3.47243532065924        3.74485937168817        1.61840074537381
C            2.86071303105432        2.88717454037888        2.52839698700999
C            2.71337839925227        3.32908754715447        3.90820165989674
N            3.08661712391124        4.53351569552086        4.34498871389666
C            2.77889239892038        4.56755806754481        5.65501356364803
C            2.21910744513642        3.33732697968761        6.05093850133521
N            2.17339586656111        2.56918628625158        4.92744601132830
C            1.83152174370569        3.08988839603321        7.41551490404494
C            1.04321261864569        2.07893530055195        7.85208978004551
C            0.66004519989500        2.16993648728351        9.24073797725720
O            0.04673975795902        1.32381304823135        9.85934708071558
S            1.19731018418210        3.72882869764648        9.89635708757744
C            2.28443110656103        4.06132328090552        8.49573165611209
C            3.71614245766587        3.73979875708754        8.92262336333394
C            2.17676427991260        5.54670599339760        7.94298752745548
C            0.71556270971600        5.95822022652158        7.76499736205871
S            2.97698459164703        6.77136825969776        8.99851896437795
C            3.75706028794423        7.59164497717462        7.63227909591370
O            4.30025764640444        8.67614646408639        7.68338988503828
C            3.66644536358152        6.75463939590343        6.45883478036868
C            2.90970698291442        5.64453967243734        6.61306739478016
C            2.39368835043510        1.62643301594181        2.09964404169128
O            1.77911500348970        0.80754466601344        3.05310992173825
C            1.11321491837501       -0.32751535395234        2.56386507074752
H            3.40760411451383       -0.29814866027952       -1.26352007632348
H            1.79733163450590        0.39522208810127       -1.66632086942529
H            1.95468366849986       -1.31809696443509       -1.22457202315163
H            3.33088767672263        1.88763867159014       -1.16096312909278
H            4.10904577373149        4.06059728351946       -0.38364707346074
H            3.81822121746512        4.70279359018368        1.96603207109014
H            1.80744370484094        1.61895606409213        4.83210140028818
H            0.66451460815075        1.30548471123819        7.20904685349722
H            3.79102512264821        2.70835857868291        9.26774209151489
H            4.03051474640374        4.39198358415786        9.73712765179146
H            4.40926548030742        3.87138014205894        8.09160108148425
H            0.19441282986862        5.95282834228162        8.72224024242395
H            0.19828665371823        5.27631637267814        7.08973486120764
H            0.64845727605644        6.96374404211887        7.34925296618451
H            4.21724981189915        6.96908762431223        5.56119985952724
H            0.56540094807042       -0.79966396747538        3.38052540527461
H            1.85057257454476       -1.02505924931706        2.16232415028633
H            0.41814883210287       -0.02664731863860        1.77770009147136
