31
 energy: -6.362736697862 gnorm: 0.000954436530 xtb: 6.5.0 (97a52f5)
C            0.96161648268063        0.89961891293667       -0.37265231764933
O            2.36494147623620        0.86627465824064       -0.49319988424013
C            3.06246202167628        1.42167458738308        0.58756513387927
C            4.45863731906411        1.44275334277624        0.52048373669867
C            5.21157957827718        1.97299302656973        1.54346152166610
C            4.59449824598905        2.49492736647818        2.65862858180968
C            3.20393833112375        2.49077139835827        2.76414904670437
C            2.53123675285981        3.02674245563833        3.93338156656008
N            1.22900118597618        3.04191889186142        4.06199846461805
C            0.85512415689314        3.59543616330071        5.25604065933228
S           -0.72187722420014        3.89555077894970        6.00151303727490
C            0.02127890667735        4.60113779000223        7.42880593220951
C           -0.59197972931978        5.12083394084550        8.55938798707092
C            0.18579056789435        5.63004597850975        9.57294213967625
C            1.57587018343133        5.62787103422359        9.47330688989819
C            2.19675962765361        5.11777491401747        8.36021069496875
C            1.41655298631806        4.59664591026113        7.32209583518888
C            1.87193784726056        4.02214833053322        6.07701925026649
S            3.40202106406801        3.71450043180936        5.30980533947168
C            2.45691937475256        1.95332663698520        1.72432911712830
H            0.52640739251553        0.46335954636380       -1.27277334630296
H            0.61988017578903        1.93148119347697       -0.27900224544528
H            0.64816466986117        0.31284148240526        0.49207469473517
H            4.93291375158025        1.03380770281559       -0.35393353494672
H            6.28684480942157        1.98047933487621        1.47179286803803
H            5.17866379148639        2.90895719778790        3.46134446413896
H           -1.66601131826857        5.11861409376683        8.62752834913904
H           -0.28384537078898        6.03431365588424       10.45446816862490
H            2.16847196913454        6.03114631949236       10.27768406529447
H            3.26876791404827        5.11205066071088        8.27275210386645
H            1.38858305990375        1.95362226273731        1.81736168032154
