39
 energy: -7.741423992728 gnorm: 0.000834039163 xtb: 6.5.0 (97a52f5)
C            0.91245623401092        0.36542920562073       -0.11711225715483
O            2.15657740173680        0.72128744042585       -0.67455760296747
C            2.94465305559762        1.55220269317004        0.13199025003630
C            4.20240693533735        1.92388729928041       -0.35196660824522
C            5.03595423286519        2.73548321286039        0.38294754421745
C            4.63732607801153        3.19965206637778        1.61740317031618
C            3.39179148017033        2.85346957308992        2.12277264007472
N            2.96422183672052        3.34620348540027        3.41256705020058
C            2.56749831148581        4.64097740813421        3.77635532064939
C            2.43709259194850        5.78679316194586        2.87727059875289
C            2.35342117172526        7.07196860298328        3.40708582068625
C            2.22260364907818        8.16802052062898        2.58613370471564
C            2.16632677460453        8.01342736523180        1.21140534474550
F            2.04330927580007        9.09583021818664        0.40002611470691
C            2.23819490922318        6.73912865262165        0.67465749259187
C            2.37021894567556        5.64225784064134        1.49336119698929
N            2.32661897821368        4.70863678593719        5.07594527964294
C            2.54151489489573        3.47445925544667        5.57739022975379
C            2.39260377419956        3.11847789027488        7.00933056133768
C            2.94579789304842        2.61042380401602        4.57481591054105
C            3.29217636199085        1.17984585977433        4.70664784204365
C            2.55941012996378        2.03358859512490        1.38257884329836
H            0.39172691680649       -0.28623198912218       -0.81996527911884
H            0.30875414686996        1.25880929319128        0.04895399231088
H            1.06526001200248       -0.17387161464786        0.81886763979392
H            4.50543177777781        1.55636286242262       -1.31623324674161
H            6.00209592999635        3.00955314617751       -0.00772228585449
H            5.27820140264412        3.83656369763865        2.20139295581217
H            2.39323905115100        7.19439025863860        4.47532880559174
H            2.16167432163301        9.16040730783307        2.99644426566356
H            2.18758277324420        6.62575595693454       -0.39382959375573
H            2.41125017423641        4.65842902907293        1.06470645938177
H            1.98318423696251        3.95752416318743        7.57097189517977
H            3.35628797740825        2.85792153180002        7.44672596156721
H            1.71988046934361        2.26959494615326        7.13205242802471
H            3.99118893317307        1.02161423061225        5.52852526950922
H            3.75969301141200        0.80876533114834        3.79438208704199
H            2.40082384750124        0.58079388669386        4.89591774176274
H            1.60219010153891        1.77789702509164        1.79402245689383
