39
 energy: -7.755965664405 gnorm: 0.000834900523 xtb: 6.5.0 (97a52f5)
C            0.81932603160377       -0.01120190037581        0.17749014021662
O            2.06257919006542        0.61533983093006        0.40143404031778
C            2.85509671236398        0.00871505644900        1.38546961668445
C            4.10210269266146        0.57832116617891        1.65991697995574
C            4.93668298538570        0.03812607140298        2.61149310866543
C            4.54992318185321       -1.08177052186586        3.31568306592041
C            3.31525835458071       -1.66748405759866        3.07055469127403
N            2.89724612796499       -2.83171568950067        3.81942881352610
C            2.47506682176813       -2.91142102297256        5.15480056961692
C            2.30623516154176       -1.78465925260916        6.07308351830694
C            2.21544185656453       -2.02173733563443        7.44281897979539
C            2.04365496370735       -0.98286906890274        8.33071812107881
C            1.95436061351319        0.31476050328927        7.86745481495592
C            2.03336415428061        0.56874985047113        6.51232280670779
C            2.20634150588039       -0.46918121136765        5.62429860294353
N            2.24516283098860       -4.16872128821750        5.50087245335642
C            2.49297566510635       -4.92314090411209        4.40912964494663
C            2.35088674156619       -6.39905911743218        4.36434853854987
C            2.90804347043444       -4.12717728076663        3.35529461365481
C            3.26761655693450       -4.56058926568420        1.98885603215984
C            2.48252807156358       -1.12399248932393        2.10910151644308
H            0.28604218693925        0.53676735616373       -0.60050700748080
H            0.22347831849828        0.00499168534290        1.09115440589861
H            0.97366449214735       -1.03786194729773       -0.15785810137090
H            4.39612612432736        1.45238908165492        1.10637658802714
H            5.89446686455107        0.49161171552131        2.80721920378506
H            5.19068466727911       -1.51037843613791        4.06612721895230
H            2.28217682883134       -3.03557613789518        7.79709729283929
H            1.97821354456520       -1.18319240683965        9.38767899507603
H            1.81865289562420        1.12759510256642        8.56194061150529
H            1.95899352477262        1.58076541149228        6.14906451306910
H            2.25476188776826       -0.26822049712730        4.57051588590582
H            1.90568366613222       -6.76954448921800        5.28723496979847
H            3.32194034963366       -6.87907908334403        4.24221232891020
H            1.71183666749195       -6.70380956297814        3.53551806294438
H            3.92388546703933       -5.43068325065275        2.01423537615484
H            3.78669401820295       -3.76575276864001        1.45371879090752
H            2.37641805009349       -4.82294374246986        1.41863753881975
H            1.53331675577218       -1.59317010249805        1.93644265718072
