35
 energy: -6.825815169079 gnorm: 0.000562798327 xtb: 6.5.0 (97a52f5)
C            1.03573170359518        0.13978984764584       -0.16060658082413
O            2.23867638362545       -0.51236036194243        0.16953198426907
C            2.99658798790497       -0.95463246900371       -0.92043122243759
C            4.19602602549818       -1.61273721450105       -0.64100479045381
C            4.99889805589189       -2.07870714541790       -1.65459699289932
C            4.62924426968953       -1.90108190467014       -2.96896545863152
C            3.44022246141421       -1.24705538428400       -3.29321212634982
C            3.07852620665635       -1.07290725671664       -4.69220151676240
C            2.02421310839889       -0.39527054091773       -5.15115831648492
C            1.75415903467875       -0.28602825065354       -6.58207562719885
O            2.44409641600692       -0.90789435786873       -7.37497061993690
C            0.64259158894552        0.58152466698442       -7.02374984651769
C            0.48668260926177        1.87517267487601       -6.51246694633968
O            1.38289967453327        2.46821210052288       -5.67022528634555
C           -0.64079827811142        2.61836936627071       -6.91238349106392
C           -1.52579986546341        2.11883953064762       -7.81377731473502
C           -2.70459210690133        2.91081006436026       -8.24414527267235
O           -1.38386182947882        0.87907271878741       -8.36797233531045
C           -0.32089811034748        0.08253200396744       -7.98338869684546
O           -0.19952493087485       -1.05523488035281       -8.42644904782813
C            2.63741994293751       -0.78349663284772       -2.25660426842959
H            0.54569026866785        0.43662862886020        0.76809734815055
H            0.38231967768845       -0.54332819350477       -0.70587657384710
H            1.24856174930316        1.03203783536264       -0.75186627144757
H            4.47502257417204       -1.74707826056162        0.38922639983574
H            5.92091181052069       -2.58561445389983       -1.41981412763322
H            5.26168228846019       -2.26587526005092       -3.76001067147119
H            3.72180418446651       -1.52931397897943       -5.42455031146712
H            1.33895267731413        0.07848298603897       -4.47401469237647
H            2.20022519127442        1.93954046790848       -5.59508441234029
H           -0.77191742989284        3.60321877586323       -6.50501579324876
H           -2.70818123499732        3.90605431840128       -7.79984931344505
H           -3.62516291397680        2.40409523393859       -7.95572009725303
H           -2.70782336192914        3.02110024763411       -9.32824658664488
H            1.71596417106786       -0.28906492189726       -2.49074112301359
