30
 energy: -5.924868807246 gnorm: 0.000540642640 xtb: 6.5.0 (97a52f5)
C            1.21805882873863        0.23034259245269        0.12638531323147
O            2.39562982558654       -0.43195116836750       -0.27731374895690
C            3.08462108383893        0.18351721131000       -1.33187897357304
C            4.25293931986852       -0.43108342195600       -1.79132551196574
C            4.97648739693913        0.10844999415203       -2.82919141945912
C            4.55825554839461        1.27379605773719       -3.43439718767946
C            3.40209808524643        1.92572857008617       -3.00196082874643
C            2.97557991600958        3.15459741185063       -3.66249182570463
C            2.09569695410794        4.03264441847480       -3.16020350464259
C            1.65680230319899        5.25190402049864       -3.82994706519446
C            1.02924885747031        6.25871370230070       -3.09471081335539
C            0.59806694392653        7.41651627225115       -3.70443502262883
C            0.77822666322738        7.59325775489149       -5.06156936465216
C            1.39106299010984        6.60691480498786       -5.80795786445940
C            1.82629280544986        5.44857687937660       -5.20149054250645
C            2.67891006955485        1.36478750255438       -1.95436050377007
H            0.76255635122663       -0.33216173603895        0.94248328383654
H            0.51219645068318        0.27793914385597       -0.70403410343821
H            1.45570637643868        1.23437687788849        0.48071371109468
H            4.57160990679930       -1.34170543002392       -1.31582934538750
H            5.87363161677453       -0.38169928180477       -3.17063966730755
H            5.12645894596303        1.69607921942012       -4.24535388707874
H            3.43182434155249        3.36865210677915       -4.61170458037653
H            1.69237373452303        3.85532299353372       -2.18001240605309
H            0.88923558375126        6.12275402133515       -2.03583084356238
H            0.11807733974300        8.18521705784057       -3.12087153500805
H            0.43853895759466        8.49826893932762       -5.53830207485076
H            1.52726654258364        6.74200761439358       -6.86866943898776
H            2.28670181784247        4.67919150473423       -5.79564361788096
H            1.77595444285798        1.84453436615830       -1.63191663093469
