96
 energy: -18.940263620512 gnorm: 0.000841173212 xtb: 6.5.0 (97a52f5)
C            1.78185766527092       -0.60803070475214        0.37155650545251
O            2.98322325738884       -1.32532677537065        0.54043376969205
C            3.65369349176511       -1.63020439723548       -0.64290790725390
C            4.84789392281958       -2.35781168459786       -0.54454910278415
C            5.56349859603913       -2.70206552755499       -1.66634696808067
C            5.11156229668675       -2.33796774606821       -2.91597832977450
C            3.92305301236388       -1.61761494907716       -3.05987190639650
C            3.43344518839939       -1.22576516071012       -4.39272300146268
C            2.97372697875259        0.03676595348332       -4.72160489888488
C            2.65353410166428        0.04469481730529       -6.09237152457735
C            2.09780458187772        1.08522904432507       -6.85289138339973
C            1.81440383509496        2.41538440320900       -6.25961517748962
C            0.48845276295651        2.80851937723379       -5.99207161038947
C           -0.65491380050953        1.90736500406026       -6.30773242648961
C            0.24831167946222        4.05387732097279       -5.44310982179665
C            1.28106782603398        4.92451950657286       -5.13213279761224
C            1.00718864553810        6.25055221614448       -4.51190665092709
C            2.58322892666608        4.52312205374054       -5.38259620339749
C            2.86940798078011        3.29607701596122       -5.95012088214793
C            4.28617159875615        2.91342031866647       -6.20603336706540
C            1.82830707794030        0.80656138134540       -8.20191560776870
C            1.33126700589291        1.67525715689294       -9.19177155731511
C            1.29640708042727        0.98825124393169      -10.39176568077979
C            0.78781254432293        1.54225016696962      -11.65832047632655
C           -0.08335587469282        0.80596315233785      -12.46520277326180
C           -0.54978048745053        1.32841757094937      -13.65172530169510
C           -0.16311102413976        2.58449437214082      -14.05412555618671
C            0.70315782260934        3.36052352232527      -13.27142342763382
O            1.05140749596798        4.62227585046461      -13.75015014369876
C            1.93760037728088        5.34387334538556      -12.92502125475453
C            1.16083977595619        2.81549371854328      -12.06867389813310
C            1.81123755141837       -0.34152840719714      -10.15940380642696
C            2.13230182725636       -1.33455563309602      -11.18525324213851
C            2.17818874885689       -2.69841079806178      -10.89503407099497
C            2.48492025495274       -3.62356516528582      -11.86798009477898
C            2.75689356260771       -3.21282760261171      -13.15062647466100
C            2.73362333307694       -1.85378669386622      -13.49068659606253
O            3.01611354495467       -1.50722460710507      -14.81031758758725
C            2.92577628965360       -0.12841221330653      -15.09251603743948
C            2.42609721020077       -0.93588751461711      -12.48438027574302
N            2.07834606969109       -0.40323054389823       -8.83509010805073
B            2.67366163880494       -1.59133541917659       -8.04539353851600
F            3.87984747262344       -1.91794939122946       -8.65276082157267
F            1.76202984934582       -2.63998741722517       -8.04936517736390
N            2.93657456985031       -1.22881611574544       -6.56609482211470
C            3.37333516903443       -2.04561123177231       -5.58075771248154
C            3.57777513065986       -3.49343060682844       -5.63989310788629
C            3.96747852386067       -4.13110675503532       -6.81811080521256
C            4.15596971453550       -5.49465523880279       -6.86060014021974
C            3.95707346325762       -6.25530642101535       -5.73367024093288
C            3.55498302293644       -5.66389787190694       -4.52874059690843
O            3.37278021944817       -6.49283780733066       -3.42371209652823
C            3.02707885628003       -5.82182456190445       -2.23281589004058
C            3.36535817987252       -4.28057694502312       -4.51390168982116
C            3.21492743323489       -1.26480729899831       -1.91853055090984
H            1.34278848991311       -0.42959861539478        1.35406193418464
H            1.08073207491660       -1.19102544136261       -0.22743396346757
H            1.98481090971660        0.35256932680004       -0.10393089032020
H            5.19246162051345       -2.64050814317138        0.43415064926189
H            6.48042498879684       -3.25988391219558       -1.56873718900226
H            5.67112022877898       -2.60431297604358       -3.79584461049966
H            2.88372758283906        0.87172716497798       -4.04983062996699
H           -0.36166603045943        0.85928056362588       -6.24142119961849
H           -1.02561032639011        2.09014287787421       -7.31673013025578
H           -1.48078532660934        2.06152541623285       -5.61257742739101
H           -0.76595506539173        4.35264195176403       -5.24650349459070
H           -0.04070835381849        6.53119318072989       -4.62193928653696
H            1.60967577693212        7.03092904145866       -4.97799919987773
H            1.24069107426711        6.23469471734911       -3.44683771689776
H            3.39164936032489        5.18674510368149       -5.13165195335690
H            4.88842337830458        3.78544082334854       -6.46271906250334
H            4.36110049675797        2.20761193432110       -7.03363872608251
H            4.72728332980597        2.44686798223372       -5.32484999814247
H            1.02406028712307        2.69420682080999       -9.03727645315445
H           -0.38497978213921       -0.17697276556942      -12.14721527086947
H           -1.21850546489798        0.74905900093631      -14.26697602728234
H           -0.51968700338193        2.99797538495234      -14.98060291728378
H            2.14511285783702        6.30591746483722      -13.39548780227611
H            2.87431529000208        4.79549914163264      -12.81518861975002
H            1.48011839529506        5.51926690169816      -11.95032612236579
H            1.82854676272590        3.37697609406477      -11.44385831060177
H            1.98400056262494       -3.01917766921675       -9.89036238237864
H            2.51493042541488       -4.67235005897070      -11.62152697727386
H            2.99661536145330       -3.92726249709958      -13.91788476312119
H            3.13199472249323        0.02412580798038      -16.15273690477186
H            3.66406007344857        0.42180472662278      -14.50734885258692
H            1.91957654218912        0.23226796125681      -14.87438298769314
H            2.42403128058176        0.11186226661538      -12.71097841352879
H            4.10455700046761       -3.54098040638309       -7.70301232397425
H            4.45680574895672       -5.96651871535118       -7.78170418212342
H            4.10397167865314       -7.32045801090485       -5.75586445240326
H            2.95179547196259       -6.55551894985794       -1.42906356731771
H            2.06190327615086       -5.32674790091859       -2.35007778368861
H            3.79960803694146       -5.09579277043491       -1.97534063415930
H            3.03712878312060       -3.80386777437122       -3.61150083844961
H            2.30366950546697       -0.71029435514749       -2.03520567113596
