71
 energy: -11.789568054910 gnorm: 0.000401881152 xtb: 6.5.0 (97a52f5)
C            0.55359103177234        1.24602442490429        3.28634128382677
O            0.80462584780170        0.04432745710815        2.59508730481807
C            2.13202933563967       -0.39184882591921        2.61481999384056
C            3.15622743691989        0.27716706929609        3.27734838657187
C            4.44025744262848       -0.22052984431248        3.28526611355879
C            4.74378898798387       -1.39436217574265        2.63209810237887
C            3.76634635149007       -2.10501785014179        1.94270592770758
O            4.01675402208487       -3.28389136327250        1.23558641051772
C            5.35502660276309       -3.72415534844518        1.25135271956676
C            2.43085544378844       -1.60526929177466        1.92781547959223
C            1.37355217083585       -2.32996576182164        1.20753627950106
C            0.62346940665164       -1.69993248045843        0.16533122027027
C            0.88664247042277       -0.38690230021464       -0.25319555552375
C            0.17162760685799        0.20102317115375       -1.26217292497298
C           -0.85045304233468       -0.49462335419769       -1.92051916615708
N           -1.59004348448163        0.11518295335243       -2.96264744789107
C           -2.91432338399076       -0.38358725023447       -3.38973560243712
C           -2.80980564926405       -1.11332418138653       -4.73222120397485
C           -2.17758374181542       -0.19611785426804       -5.79357756367969
C           -0.82549782646358        0.35889020233811       -5.31023269657662
C           -0.96189574886998        1.03513866929440       -3.94000057490834
C           -1.11129377466644       -1.80406295674218       -1.52079356430803
C           -0.39633858403049       -2.42409857661319       -0.50570531963224
O           -0.70163999973885       -3.74066483162818       -0.19301996770511
C            0.02721559578409       -4.35700340324412        0.81358373947183
C           -0.27800634807993       -5.67082580162536        1.13996541638272
C            0.38382223821681       -6.35750766662798        2.15628408264758
N            0.05136497083056       -7.70115293503924        2.45515771247043
C           -0.29621806601293       -8.67674237310358        1.39494169736925
C            0.85546990594889       -9.66449467375899        1.16936426411960
C            1.27709863085354      -10.33823053902254        2.48770124253407
C            1.58704524901962       -9.29004012293999        3.57061762503513
C            0.40291888748679       -8.33425159065611        3.74356072604801
C            1.38249210892891       -5.67731913448878        2.86485628902449
C            1.70470004671292       -4.38214822008302        2.55853648224169
C            1.05691907160374       -3.68805223380056        1.52563494717802
H           -0.50586208307561        1.48524468748273        3.18525057971386
H            1.14172811965587        2.05530074106770        2.85146552529910
H            0.78955849715411        1.12058636844138        4.34397337863429
H            2.94643274486582        1.19260224725550        3.79890375224577
H            5.21617641383415        0.31440788322369        3.80804009086524
H            5.75430211371772       -1.75831101517031        2.65256685737597
H            5.99956411528573       -2.96818779817135        0.80081214498604
H            5.42090986424944       -4.64136324795749        0.66470057952479
H            5.66480263613442       -3.93640500013876        2.27550358361795
H            1.65959831478492        0.16941328329270        0.24611578140687
H            0.36844184778242        1.22374726385543       -1.52813531623417
H           -3.58088627307446        0.47956499744501       -3.47926839649418
H           -3.34461261296775       -1.01363330416937       -2.60579202521648
H           -3.79429464059421       -1.47423084634444       -5.05873527521673
H           -2.18822562803954       -2.00776541519621       -4.60963946285849
H           -2.85769161313124        0.63744091134223       -6.00537056693307
H           -2.05986081250410       -0.72969477183591       -6.74659298087602
H           -0.40558107500992        1.05714472096565       -6.04659005208167
H           -0.10354137648186       -0.46263818819663       -5.23376310435316
H           -1.58322345204279        1.93258077829688       -4.01094718796574
H            0.01284302556010        1.35998217497675       -3.56651160486462
H           -1.86050029843467       -2.38078965128377       -2.02688147712326
H           -1.08123028093210       -6.14447246215580        0.60993207874188
H           -0.54062899276950       -8.14532010345500        0.47137941423064
H           -1.20450676939079       -9.20374412164569        1.70087821019935
H            1.71196480608933       -9.12539803056558        0.74803116481069
H            0.57865304006945      -10.41700155608931        0.41882609692197
H            2.14181187900111      -10.99631434103318        2.32728925848678
H            0.46970740211319      -10.99313959112163        2.83581584268166
H            2.47393212249537       -8.71693947059761        3.27699256273509
H            1.84282284974429       -9.77176317863910        4.52382327230938
H            0.59606578545233       -7.56373533342060        4.49571660497846
H           -0.47662023471566       -8.88177581797880        4.09540009242967
H            1.92572346619690       -6.19004609411282        3.63752874024799
H            2.48229588571643       -3.88274772423901        3.10827997884409
