99
 energy: -16.497358509881 gnorm: 0.000560251932 xtb: 6.5.0 (97a52f5)
C           -0.18235693467877       -2.03755113248474       -2.79058346243119
O            0.30632598362112       -0.76094002117148       -2.45075000290162
C            1.67786139896043       -0.57445376301458       -2.64149187478950
C            2.54188136217794       -1.57418666009577       -3.07681807274698
C            3.87996134232610       -1.31779142339508       -3.27786933420701
C            4.39795608889083       -0.06254876586883       -3.04832429527508
C            3.58826542085166        0.97653795881676       -2.60082435907817
O            4.05703808606154        2.26268740383381       -2.32133896672002
C            5.43589016511983        2.46174555812630       -2.53016838374009
C            2.20016122742855        0.72813031717049       -2.38949265771567
C            1.31671093695384        1.80583842788846       -1.92010418651554
C            0.56309106549176        1.67377847125917       -0.71165058297992
C            0.64892933391466        0.53227117510660        0.09972769387164
C           -0.07878593527217        0.41631784302456        1.25376543574483
C           -0.93580433648766        1.44301451424129        1.66979069254919
N           -1.71275361756853        1.31315554549121        2.84650337390255
C           -3.03720439280038        1.95129967424134        3.00258431935609
C           -3.07974777173334        2.78223160077772        4.27865269569415
N           -2.67125405986587        1.94436461397187        5.41016339626435
C           -3.62325477335200        1.46232721664705        6.31412633950402
O           -3.30544902776194        0.62013158682525        7.13743462893583
O           -4.88169104373388        1.99032478058047        6.17974567903114
C           -5.87122122301617        1.46068432923057        7.10374759773874
C           -6.03557013549083       -0.04932871667719        6.88802265520414
C           -5.45738122232093        1.76531706599269        8.54911933882575
C           -7.20137103845026        2.16547754391318        6.79663423666638
C           -1.36504498441649        1.28836071621875        5.29765431212650
C           -1.28501010509430        0.48950431238768        3.99840230295664
C           -1.00992128377618        2.59165834625143        0.88423868423854
C           -0.27882086118212        2.73479931084759       -0.28670320342779
O           -0.39423442801075        3.92135499679742       -0.99621797959337
C            0.33159713518851        4.05141736376277       -2.17126372468084
C            0.20625476357254        5.22640416098834       -2.89899041572966
C            0.86926774404790        5.42560625626947       -4.10863468131461
N            0.72535494393738        6.64380182412507       -4.81736720714140
C            0.68519384012755        7.94823367991735       -4.11703773169749
C            2.01036241203203        8.68480995625163       -4.29767453401591
N            2.36522023947243        8.73725670033252       -5.71967723135762
C            2.32761953965744        9.95075058146676       -6.41231669000869
O            2.16204443390920       10.99323367406463       -5.80058408312954
O            2.47612186910561        9.85546208044986       -7.77217948330323
C            2.42158938423021       11.12129658875157       -8.48490863990083
C            1.05898847347388       11.79129733772741       -8.26396727222764
C            3.56299153131925       12.03444151352268       -8.01906911842705
C            2.59740036746629       10.80843425348756       -9.97883198646195
C            2.38213979950204        7.46201720328564       -6.44441652096753
C            1.04307661872658        6.75869987087505       -6.25488354208895
C            1.67995014561177        4.39031522569897       -4.59135563942129
C            1.82875760201151        3.22641232246300       -3.88582851710401
C            1.17980095959023        3.02301053166558       -2.65852420302569
H           -1.26165543837543       -2.04419187349769       -2.63220146563659
H            0.27425186188741       -2.79297837446129       -2.14958502244807
H            0.02341357203936       -2.24522438777204       -3.84161673186293
H            2.16371975532675       -2.56178959865374       -3.26557057839733
H            4.52855801964788       -2.10782442436576       -3.61942970674054
H            5.44561034226902        0.10938647017518       -3.21239885395237
H            6.00855340153644        1.80020078183468       -1.87879582484090
H            5.67371432345173        3.49689855949121       -2.28143422048518
H            5.68297850664558        2.28332100011801       -3.57749576858438
H            1.28723382713845       -0.27555719628877       -0.21062678673043
H           -0.02660866346368       -0.49096684199637        1.82797423838542
H           -3.78512223266358        1.15421515795579        3.04907988177390
H           -3.27712670383219        2.54631822533436        2.11713631962247
H           -4.08104130401635        3.18168493814691        4.47519337217329
H           -2.39611867279212        3.63408202384358        4.21177337431793
H           -5.10058082958294       -0.56614665292751        7.09493679624287
H           -6.31104104041694       -0.25680167670523        5.85588767118308
H           -6.80544530809825       -0.45883430376593        7.53990531571616
H           -4.51371583551886        1.27725489628672        8.78455328339192
H           -6.20904783004011        1.41750570699638        9.25581102687638
H           -5.32316213860964        2.83647278958395        8.68644328453001
H           -7.49788562582017        1.97947743258423        5.76619411605466
H           -7.09650617267796        3.24128823555424        6.92300037171613
H           -7.99598091006571        1.81577029996661        7.45375285664739
H           -1.22555038562372        0.64730442665043        6.17549548402118
H           -0.58671128902304        2.05700736863479        5.33157632609236
H           -1.92894874889038       -0.39307762368040        4.04721173780685
H           -0.26433920227733        0.13480343409595        3.82920228135219
H           -1.61874723855577        3.41673007249241        1.19900169054495
H           -0.46017372756752        5.97935292882563       -2.52521671214823
H            0.46396139214567        7.79336584683051       -3.05748221106414
H           -0.13982538596128        8.53478958982759       -4.53156770563242
H            2.81480085192840        8.17518067533119       -3.75837996189510
H            1.96097908545527        9.71045253471040       -3.91475072879881
H            0.91441956636297       12.01876635298035       -7.20960338831347
H            0.25521833574799       11.12704810776164       -8.57604057312562
H            0.98000999209755       12.71883171952717       -8.82860627035675
H            3.45926649134663       12.26033510235137       -6.95960025897226
H            3.56757900428355       12.97281846032459       -8.57117737078947
H            4.52350136450555       11.54348632143516       -8.16382577271864
H            1.80584594188392       10.14433894903796      -10.32108408329465
H            3.54844729537080       10.30760690175584      -10.15029045541863
H            2.57089124472563       11.71628286379714      -10.57939150664021
H            3.20240388254930        6.85256416626470       -6.05347678691041
H            2.59629373817676        7.65696313915740       -7.50118474950921
H            1.02058609415121        5.77033247075869       -6.72359974121430
H            0.24512362183125        7.33960669932403       -6.72731906158618
H            2.21959242596349        4.52663836812325       -5.51074939520872
H            2.46718370554287        2.44979598418808       -4.26771253367134
