69
 energy: -11.504168020598 gnorm: 0.000552950712 xtb: 6.5.0 (97a52f5)
C           -0.26610803575138       -0.52696729841862       -3.31035103838514
O            0.30129269923168        0.40343042891013       -2.41755895429836
C            1.68533079369279        0.56469031147613       -2.51815111733465
C            2.48027390519487       -0.12509945130940       -3.42790750670716
C            3.83688623054978        0.10098648862193       -3.49892469295217
C            4.44240849563334        1.01426841195932       -2.66478942525989
C            3.70390483019719        1.72836595807347       -1.72674092864229
O            4.26215172873265        2.64569854283141       -0.83302769123958
C            5.65995688771155        2.79674946245356       -0.91548416142870
C            2.29727150874547        1.51030074762069       -1.64385402810643
C            1.48698413670642        2.25647785028649       -0.67003918512535
C            0.69513696664479        1.57986150455474        0.31035881906845
C            0.67781419051630        0.18123250596086        0.42007976661586
C           -0.07783868491470       -0.45433619685771        1.36886370841235
C           -0.85983901732723        0.27452473540766        2.27396473132305
N           -1.64616589644051       -0.38572545445391        3.24953960167263
C           -2.78241553750896        0.26525399588191        3.92815881800892
C           -2.41576361741923        0.58030313687922        5.37290035435716
N           -1.96753653891989       -0.63287232784417        6.06025349811714
C           -0.85102779280922       -1.30548271983451        5.39162996515806
C           -1.18610381801151       -1.61273472928924        3.93487983118042
C           -0.83589327922227        1.66512715199019        2.18480854267107
C           -0.07423798938909        2.33228926816558        1.23599368613894
O           -0.08710684918649        3.71918109715698        1.23773104464631
C            0.67543253068763        4.37903199825676        0.28567330090978
C            0.65068282389789        5.76633211443109        0.26611279806935
C            1.36325564127895        6.50945377689460       -0.67337119723931
N            1.31736016571926        7.92496956299804       -0.65794498713972
C            1.29290971541204        8.69546754089858        0.60400962039114
C            2.65580201744675        9.33475989233661        0.85693739474803
N            3.09214306228304       10.10789842653339       -0.31283498856971
C            3.09873535371083        9.35028288327258       -1.57004098015184
C            1.72243056277327        8.74364198671441       -1.81520472090857
C            2.11683417979417        5.81179244233669       -1.62604220315026
C            2.16085250944541        4.44330958233866       -1.62411986644903
C            1.46208403317701        3.68664540100232       -0.67145830028854
H           -1.34141962029891       -0.56110611347756       -3.13080890397295
H            0.15473870946608       -1.51716881470690       -3.13125199383212
H           -0.08762321324168       -0.20989220202976       -4.33862366815586
H            2.03341705907173       -0.84046351521342       -4.09318520320846
H            4.43089048834373       -0.44220747823452       -4.21564268061967
H            5.50269001829560        1.16945448714571       -2.74049055237333
H            6.14791422268043        1.84234198041363       -0.71323562303207
H            5.97087459618702        3.52098630954338       -0.16138297805786
H            5.93546265147123        3.17217463508396       -1.90187880231661
H            1.26006542985259       -0.39892343478100       -0.27322799930504
H           -0.10593696914190       -1.52860198435800        1.39619072494765
H           -3.63131906300444       -0.42371384760057        3.89382857117743
H           -3.09208822677131        1.15628991442394        3.37484295558147
H           -3.25209482575636        1.03487240476505        5.91940727324527
H           -1.59568462214828        1.30511510865615        5.40532894936307
H           -2.75546387003284       -1.27828107096254        6.15525967226270
H           -0.57890615423381       -2.21266827716730        5.94632666666128
H            0.01770566997130       -0.64084601964404        5.44532580223782
H           -1.97934050759268       -2.36237062196132        3.86827853913267
H           -0.31743800711854       -2.02459497539838        3.41476173287678
H           -1.38728391615689        2.25823930113421        2.88778009040002
H            0.02365682545505        6.26554129748908        0.97894531430711
H            1.00624851412617        8.04361826416022        1.43333129620819
H            0.51804044384019        9.46287623754859        0.52132836577413
H            3.39796273193274        8.55550073055794        1.06458527033874
H            2.62579933966909        9.99019875104308        1.73655058217642
H            3.98955313652309       10.57771315053847       -0.15223864812633
H            3.84991241997335        8.55543223151674       -1.50192432292087
H            3.39724771605175       10.00623816813260       -2.39758918081828
H            1.68490987228154        8.14734593123447       -2.73136900113877
H            0.98029718037520        9.53818929200722       -1.93718041973724
H            2.69312600551185        6.35976012939961       -2.34883139974475
H            2.75417805215092        3.92836100254149       -2.35834993742782
