60
 energy: -11.869285546597 gnorm: 0.000591091715 xtb: 6.5.0 (97a52f5)
C            1.06019013689191       -0.38631160864060       -0.19011674046232
O            2.43983369544885       -0.38753974257001        0.13101665127292
C            3.27216472228632        0.29770434560749       -0.77638358255939
C            4.45656947317606       -0.34181640635131       -1.14605106051345
C            5.31011107327285        0.21010552093880       -2.07064286107048
C            5.02119417714173        1.43029203147963       -2.63237179912861
C            3.88324309816949        2.14973262176400       -2.26388393097878
O            3.72018389430175        3.41865259218696       -2.85496701748795
C            3.32284134845183        4.45417893839783       -1.97443966114768
C            2.97275666248493        1.57809897974634       -1.32736622983468
C            1.74528338619819        2.29963837844677       -0.93470473868979
C            0.73270046675209        2.57994459598987       -1.89549432202983
C            0.86254103505111        2.15452997004493       -3.23671634082659
C           -0.09792266988440        2.42537277344434       -4.16322469492274
C           -1.24424790669277        3.13640398553458       -3.79950954445807
C           -1.40970178803060        3.55815136883874       -2.51539049814129
C           -0.44099724956675        3.29111044704715       -1.52199893472216
C           -0.62431292464215        3.73004526767740       -0.18020087192428
C           -1.84101290398917        4.47249078071442        0.20734774203801
C           -3.12218823716514        3.85034788120419        0.14128257744606
O           -3.33373600274684        2.51433804006411       -0.25387761025136
C           -2.44082363216887        1.56661126864539        0.30357024338651
C           -4.25525701404013        4.58751640681213        0.48892938369532
C           -4.15640494679571        5.87951004969075        0.94579202771479
C           -2.92611873953452        6.48363232296368        1.04220879983630
C           -1.75836162933751        5.82321487117920        0.65649654264372
O           -0.56213087782198        6.56275753319393        0.74038199992017
C            0.32129485614944        6.42252376638162       -0.35730572036015
C            0.38306194464986        3.44001984044230        0.78301707071992
C            0.23810139005947        3.83808782318097        2.13102452259380
C            1.20036547631449        3.57134932910559        3.05680427917476
C            2.36222271353675        2.88964587780641        2.68596340762980
C            2.53612948705760        2.48314617960513        1.39802664617277
C            1.55859350603059        2.73250355510936        0.40868707890041
H            0.61852140865797       -1.32341966251979        0.15064992473867
H            0.92375635266059       -0.29898184129682       -1.26882491510320
H            0.56401574150008        0.44056652608968        0.31684333006493
H            4.67234771379473       -1.30035980929361       -0.70869000599997
H            6.20754088247215       -0.31448174496083       -2.35535547566849
H            5.68844171677255        1.87183151030240       -3.35095380346043
H            3.76561970346858        5.39222644889491       -2.31117952026612
H            3.66570332241909        4.24090877656856       -0.96116699060302
H            2.23821170204878        4.55375668976291       -1.98884396836375
H            1.74679865489726        1.61449150494573       -3.52518511377665
H            0.02491516837902        2.09461185951798       -5.18145701665556
H           -1.99949941576320        3.34683109683552       -4.53881775923148
H           -2.29862747540254        4.09717789904622       -2.23967690646403
H           -2.96894418948440        0.62182040402301        0.43746105318319
H           -2.07841937186487        1.91371457132200        1.27213325935340
H           -1.60259663966175        1.40712003573761       -0.37363689151575
H           -5.21403245422961        4.10539314620723        0.41906977672575
H           -5.04499829764098        6.41980284229122        1.22885482342042
H           -2.84216357256824        7.49701674083031        1.39233611365785
H            0.85036017128726        7.36472676052333       -0.50523020221462
H           -0.23570605591632        6.18000705921166       -1.26321227661854
H            1.05003056690907        5.64090769926936       -0.14531417204628
H           -0.64992586164664        4.37134554873620        2.42069165046137
H            1.07020212373117        3.88893073748350        4.07830835558204
H            3.11918676794720        2.68308909806583        3.42462636131199
H            3.42827531622035        1.95008651672642        1.12128755585873
