26
 energy: -5.433046722570 gnorm: 0.000839410299 xtb: 6.5.0 (97a52f5)
C            1.73372316946554       -1.15194258658886       -0.00945724827651
O            1.54579031755172        0.22103247486460       -0.26022849676456
C            2.39624764505461        0.75767013644869       -1.22083469452112
C            3.38808300526149        0.05241093052414       -1.92097740726060
C            4.18773504264093        0.66734770706656       -2.86263422525138
C            4.04422916940964        2.01261285922398       -3.15930826995278
C            3.07807743095777        2.73433830466032       -2.48870878465626
C            2.26376214477202        2.12426828609745       -1.53301336736178
C            1.34707813432489        3.12020079609232       -1.00045795385204
C            0.35180671171915        3.01846693340103       -0.04133198112513
C           -0.37942410579034        4.14421919402716        0.27772236822147
C           -0.12544652582339        5.35730819017733       -0.34838142769575
C            0.86503134192677        5.46773668226199       -1.30490742326713
C            1.60168299218290        4.34359308595880       -1.62888438545404
C            2.70313414516231        4.15901867022724       -2.59217889708124
O            3.19685370518771        4.99792603528920       -3.31363439370663
H            1.01261637768062       -1.46825130647738        0.74508974311999
H            2.74199576049497       -1.32214562538754        0.37033222129744
H            1.56441357351571       -1.72303208587407       -0.92294089325307
H            3.52946794751694       -0.99327857702971       -1.71849719210397
H            4.93918855341753        0.09180113610487       -3.37789330997797
H            4.66336861999792        2.49909144919922       -3.89225610917715
H            0.17036229378962        2.07039704488817        0.43312422108527
H           -1.15806521612489        4.08038035973665        1.01967875072427
H           -0.70948385868214        6.22403878658347       -0.08608787367078
H            1.07176162439118        6.40136111852237       -1.79791297003688
