33
 energy: -6.921268758426 gnorm: 0.000807885503 xtb: 6.5.0 (97a52f5)
C            1.16386877657881       -0.10203080395069        0.25434634579053
O            2.31198220780966        0.26386612752567       -0.47704252817394
C            3.00079905098768        1.37968292478957       -0.00296168923450
C            2.64185403230965        2.11102342121582        1.11597322455557
C            3.41144668119744        3.18028563756530        1.53748935720189
C            4.51196313632438        3.57081314557721        0.82294161702963
C            4.87815008511991        2.91775701107158       -0.36434419839565
C            4.16383743959196        1.76755627348091       -0.72973891690890
O            4.56493174479230        0.95545270480313       -1.76660600175321
C            5.77584778696013        1.17811791547826       -2.38186237776477
O            6.18877497928973        0.37779367021158       -3.20675640953740
C            6.53717534420054        2.38928960275723       -2.06668667622520
C            7.84020005063823        2.63950835439630       -2.68989846174921
O            8.35964719260644        1.80149672354080       -3.40862103852556
O            8.49948643574854        3.82173021528042       -2.44070339189856
C            7.86796616873835        4.81791324960540       -1.72519084929706
C            8.49574493290008        6.05694822166268       -1.64220917490377
C            7.88876279694055        7.13944448034978       -1.02203318231867
O            8.48711374747215        8.37390373604069       -0.92519982344111
C            6.59887672615517        6.96076461004485       -0.49636548755856
C            5.97865221501405        5.74614345478900       -0.55304069043511
C            6.61228564987150        4.62315842425769       -1.11131842234999
C            6.01332671205398        3.30989100354893       -1.17926717771563
H            0.72580558081114       -0.97761673470019       -0.22862683113647
H            0.44134307468070        0.71622902494825        0.23821609953020
H            1.44689696019619       -0.35979444014671        1.27666549531100
H            1.77422398902070        1.83153641081608        1.68574820579480
H            3.14513164477987        3.70434353779739        2.44176880325037
H            5.14661087226758        4.34200778964890        1.22262027580972
H            9.46229681211774        6.16579383350006       -2.09661764879990
H            9.36896341370040        8.37352829128313       -1.33551526672656
H            6.10875945760011        7.81385567452246       -0.06007405646123
H            4.95512430152570        5.67119650829086       -0.23082912296425
