38
 energy: -7.715045980215 gnorm: 0.000626420522 xtb: 6.5.0 (97a52f5)
C            0.80658010322259       -0.62148600893056       -0.06720331236277
O            1.93031656583070       -0.11417174747263        0.61394665811300
C            2.89451192060772       -1.06438974849786        0.94669645286279
C            2.81283725160620       -2.42355471139647        0.69558364448149
C            3.83430493146291       -3.31163044639493        1.05727971052017
C            4.96770126718415       -2.87484216609680        1.67867837456832
C            5.09379190562620       -1.49872171193893        1.95576631701777
C            6.10539032350086       -0.74516219947494        2.56421644499462
C            5.67742757617982        0.57148117463061        2.57147347698887
C            6.45227302164491        1.69661342753271        3.10846428888535
C            7.79507374536755        1.74086507622935        2.95513503919085
C            8.55827999755198        2.83187108930327        3.44000886157067
C            9.94944722794110        2.88575537554520        3.26949503321157
C           10.66434086112745        3.95288046234920        3.73686937921342
C           10.01850244359649        4.99156905312406        4.38627800191192
C            8.64699793200036        4.98685721853423        4.58312585870735
O            8.10771915308949        6.08847932879563        5.25768685775941
C            6.72783705815703        6.03489905746815        5.50754738944268
C            7.89174693926674        3.88089527180428        4.09429646282136
O            6.52105377575840        3.85646400779340        4.27030483656905
C            5.77698222760614        2.79161694406727        3.80924223363890
O            4.56871166880858        2.73997674525492        3.98908629102124
O            4.43648276011137        0.67270914165848        1.98117557151166
C            4.07303670974164       -0.59590593493597        1.60118031391733
H            0.13994546846552        0.21223857966167       -0.29360782520760
H            0.28028473221220       -1.33622584955376        0.56729196305648
H            1.12031876896478       -1.08957364542067       -1.00170137824176
H            1.93969106278692       -2.81572417736109        0.20726779984192
H            3.72077412714005       -4.36073260348510        0.83827040453421
H            5.75540329064832       -3.55241148539749        1.95703382145395
H            7.02774562992941       -1.12452329290291        2.96578351168551
H            8.29658146729742        0.94560524991148        2.43425291942490
H           10.44810963840117        2.07696907616352        2.76366723805709
H           11.73273037894241        3.98754210303412        3.60053886325363
H           10.57842476112766        5.83202327967627        4.75702781895556
H            6.43375285902939        6.92588261917604        6.06442509412340
H            6.50286647254253        5.14136007728590        6.09266366429556
H            6.19285397551946        5.99887137026046        4.55684191820881
