33
 energy: -6.836172937717 gnorm: 0.000739054184 xtb: 6.5.0 (97a52f5)
C            1.05334663039099        0.10109653752716        0.43753872034054
O            2.14762728090842        0.09530555191189       -0.44091211458629
C            2.87578410006535        1.28562389594325       -0.51293993846331
C            3.94270287260620        1.30893200633651       -1.39605265864141
C            4.73320285110364        2.43558488796335       -1.55089162761321
C            4.47123307000652        3.56369668478625       -0.82454530735210
C            3.40278348217739        3.59365707590194        0.08400451096272
C            3.11142486020660        4.75072781772889        0.84832755439845
C            2.08063529116481        4.78370758764097        1.72642422069263
C            1.79644002210689        5.99417413031076        2.51385353329623
C            2.09238507098482        7.26575827997845        2.01700984264019
C            1.84735443508032        8.39110874912530        2.76663435592513
C            1.30158025257403        8.28405066063095        4.03137406602147
N            1.04442008480354        9.48369912336745        4.82679968530415
O            1.28729920397750       10.59079037579942        4.32746485055944
O            0.59219663147018        9.35079423991169        5.97203044500182
C            0.99293482169032        7.03543702149639        4.53527298400378
C            1.23342097423226        5.90896555735295        3.78728678140903
C            1.25855754109320        3.57632018205606        1.88546276326252
O            0.32705186033900        3.58644425497469        2.67662256546519
O            1.54488330245075        2.45307231666745        1.14243675583380
C            2.59663350806988        2.45647564410792        0.25122738625691
H            0.56137411431897       -0.87176885488773        0.39064784986631
H            0.35712038208160        0.88684459477226        0.13652017890717
H            1.41164967862779        0.28988825626001        1.45207272480737
H            4.14520669992840        0.41916233714866       -1.96643831231741
H            5.55588323758374        2.42123149892465       -2.24704764903514
H            5.08439753522848        4.44040236620586       -0.94369076198218
H            3.74749787001795        5.60970946487402        0.73921480689405
H            2.49540497564378        7.36630269243256        1.02421730016508
H            2.07283110426445        9.37154998322616        2.38089997709195
H            0.55954813141282        6.96457228730136        5.51908428489761
H            0.97352812339000        4.93808279222288        4.17377022598806
