23
 energy: -4.843004311691 gnorm: 0.000776884849 xtb: 6.5.0 (97a52f5)
C            0.96955601894011       -0.06034191593504       -0.08774170028428
O            2.20495566832986        0.33315465354127        0.46425594296431
C            3.02955394293389       -0.70899147955930        0.89580757188599
C            2.71969486512675       -2.05626561356372        0.78724916767202
C            3.59284635909348       -3.03159744090971        1.23948243348024
C            4.78949798490513       -2.68423981041558        1.80827096338566
C            5.14803809929089       -1.33784919380863        1.94059051825316
C            6.38113139186301       -0.94090153334324        2.52746593765810
C            6.70681568242065        0.36491726003100        2.65106628722379
C            7.92135735203452        0.73200697336125        3.23218325376823
N            8.93132502694136        1.04707405886069        3.71263991835372
C            5.78208947083408        1.37958909535600        2.17668684951493
N            6.07387923888620        2.62692333456043        2.29864054547721
O            4.57871424827330        1.00317674168869        1.59186915125399
C            4.27086285599747       -0.33949414257678        1.48490645408643
H            0.41992049641981        0.84197592708388       -0.36204946375073
H            0.39499784150043       -0.61627159383367        0.65524148206437
H            1.14092062849691       -0.66089534461207       -0.98287673098987
H            1.78743911562358       -2.35523609771134        0.34402072882815
H            3.32785021319421       -4.07215560378956        1.14275637848578
H            5.46539044330244       -3.44528804240028        2.15886541310001
H            7.06435194526015       -1.69323100829209        2.87994599209056
H            6.91570111033164        2.91124077626785        2.70877290547805
