35
 energy: -7.225627406435 gnorm: 0.000962492711 xtb: 6.5.0 (97a52f5)
C            1.10832861789718        0.29602732498404        0.43815214387810
O            2.24490776249346       -0.19072257355844       -0.24151461874161
C            2.82323117718283        0.70500710030267       -1.14246626453183
C            2.36263565941933        1.99745965493810       -1.35754801373096
C            2.97794218407868        2.84357346646438       -2.26993075190320
C            4.06333749891647        2.42690172862870       -2.99199826256893
C            4.57846815254230        1.13027422497372       -2.82159246495219
C            5.70617910635187        0.67464784074481       -3.57057636219868
C            6.22962805463822       -0.58082320141468       -3.43304451743107
C            7.40161713525633       -1.01508625181914       -4.23810107234187
C            5.61234155345551       -1.45664935340340       -2.49577264126915
C            5.89051060228635       -2.81531576351233       -2.09648516462778
C            6.85322733486082       -3.75730859578872       -2.48281305509524
C            6.84271720364156       -4.99619249848643       -1.89335552212852
C            5.89154215312685       -5.32831814310444       -0.92069063590028
C            4.93886401793418       -4.42482533776643       -0.52661697397841
C            4.93438715926577       -3.15780045523369       -1.11638392814782
N            4.10206217031416       -2.06390923732051       -0.91750891302929
C            4.50204746136720       -1.03559288520249       -1.74464308555676
C            3.95565571518313        0.26952472965883       -1.89141765428192
H            0.73356576975471       -0.48512797566480        1.10103328622433
H            0.32581221074024        0.55256751413009       -0.27769608189413
H            1.37595883288409        1.16667624030213        1.03899505470532
H            1.51122709685680        2.35665293953979       -0.80902224390207
H            2.59437995480059        3.84099516537701       -2.41112655449315
H            4.53387716345994        3.08886827081219       -3.69835579521464
H            6.15674273738186        1.35353891023427       -4.27202196778331
H            7.74815665089418       -0.21878015810662       -4.89790104646922
H            7.14776539509061       -1.87228514893742       -4.86267539392029
H            8.23547015247059       -1.29341296800355       -3.59280687839740
H            7.58509543907120       -3.50922791479958       -3.22966891102558
H            7.57861606841894       -5.72834799366810       -2.18304616630799
H            5.90994425263624       -6.30988265742408       -0.47603368907554
H            4.20362803162753       -4.66965746942870        0.21902696293863
H            3.30953952369958       -2.00815852844625       -0.27455281684736
