38
 energy: -7.649554621261 gnorm: 0.000496273178 xtb: 6.5.0 (97a52f5)
C            0.78368969492418       -0.48702672482186        0.13106228055398
O            2.00927240404758       -0.00032037354331        0.63837662575192
C            2.96957346533777       -0.96670720550484        0.93285724681352
C            2.72588186592167       -2.32238107327778        0.74290621406763
C            3.63122054535319       -3.29057118950685        1.14335780216599
C            4.79284205751783       -2.93158530515440        1.76415981975776
C            5.10647880956504       -1.57696782876344        1.97095251487419
C            6.29575382359245       -1.23175601271244        2.67538321111875
C            6.65146970331437        0.05868696905690        2.92960071714240
C            7.89826699227477        0.36755824542052        3.67949521295234
C            5.80992462089612        1.08567165264798        2.41929188648233
C            5.96564137364825        2.51698428813333        2.45665425297202
C            6.90500707477859        3.36878293192358        3.05488578732495
C            6.78793251147486        4.72311901596358        2.87181581701039
C            5.75218184749434        5.25914583186700        2.09900428884512
C            4.82403191442884        4.44437089000777        1.50444251972025
C            4.92666259886260        3.06107605080112        1.68558710911075
N            4.14700673094670        2.01007588755076        1.18862375667398
C            3.18653320258333        2.21576159496600        0.10866142068411
C            4.64727380971076        0.79442471192601        1.67737012131078
C            4.22684629421056       -0.56946163256915        1.49838818847910
H            0.11538388347280        0.35753232536915       -0.04119605554405
H            0.31769203142193       -1.15697937115894        0.85481984876303
H            0.94710327443008       -1.00033041925669       -0.81744769670016
H            1.80415728075677       -2.63928590636236        0.29087494266242
H            3.40570387380820       -4.33286966387473        0.98592733907279
H            5.48064448115601       -3.68618195691438        2.10540555976751
H            6.92591274095316       -2.02695166991593        3.03177132985420
H            8.41594318122602       -0.54380410892067        3.98129515604685
H            7.67818992481119        0.93292224373257        4.58560637025981
H            8.58828633819366        0.94756992170115        3.06562770007785
H            7.70335656943974        2.96621131522308        3.65032298607207
H            7.50433894307293        5.38604560031111        3.32876702110395
H            5.68452243585618        6.32709795731619        1.97094285114684
H            4.02157045342965        4.85120747864608        0.91557729696133
H            3.43974501272072        3.10139072390314       -0.47030304178881
H            2.18678580449407        2.33238563572222        0.52174810357004
H            3.19324242987293        1.35741917006800       -0.55957650513811
