16
 energy: -2.970811664048 gnorm: 0.000707592482 xtb: 6.5.0 (97a52f5)
C            1.02246983685283       -0.02345036537080        0.14913581712659
O            2.32200808514972        0.40415483865426       -0.19410424766677
C            3.04810693742979        0.98010046649827        0.85814607595094
C            4.34576383956973        1.42122196041369        0.58301410382798
C            5.12329082705456        1.99782739216907        1.56007377551422
C            4.62672406070735        2.15082804422547        2.83886274358072
C            3.34765946371593        1.72253632575177        3.13358335452631
C            2.56566492882693        1.14418184391262        2.15982470973676
H            0.54970029674967       -0.44989342489610       -0.73643448537483
H            0.42785521389619        0.82513694109351        0.49059066571701
H            1.07415860356505       -0.79029775280839        0.92331664631961
H            4.72446026187016        1.29719709301131       -0.41602244113862
H            6.12142943620854        2.33107563705132        1.32691544652507
H            5.23555658982068        2.60265276063665        3.60472604343789
H            2.96050155945591        1.84061230648184        4.13258112882692
H            1.57356005912701        0.81294593317552        2.40736066309039
