67
 energy: -11.247234723975 gnorm: 0.000621865593 xtb: 6.5.0 (97a52f5)
C            0.38795880594459       -1.27689704119044        2.86754892727230
O            1.39754609389392       -0.29355897290067        2.74676636607161
C            2.61198071135061       -0.73329173425660        2.20781855862362
C            3.77702569690499       -0.15317038779582        2.72863654276074
C            5.02173580036217       -0.55633862204637        2.32574681844766
C            5.15301124635010       -1.55197095047708        1.37219418542374
C            4.03646836852964       -2.11705921110391        0.81341732032431
C            2.74522772002914       -1.72151941780332        1.18851253122207
C            1.58025672387671       -2.27754586819953        0.46629685712509
C            0.73190863150764       -1.44312736193065       -0.30085985858868
C            0.94384629519465       -0.05094605716599       -0.40706472028960
C            0.11907881044902        0.73812990923507       -1.14255131463473
C           -0.98801592947092        0.19457545305189       -1.83734847008861
N           -1.84059095493142        1.01161681164054       -2.59263381600977
C           -3.16918009100628        0.56886014292350       -3.07081727208782
C           -3.14516602541521        0.33389256556583       -4.58334889397439
C           -2.69401021867156        1.61072471207975       -5.31376501316188
C           -1.34793140971154        2.11440432584997       -4.76227296293873
C           -1.39566182265962        2.27200437332130       -3.23671795073834
C           -1.20009973733713       -1.17497661569630       -1.74256689845504
C           -0.36885240549311       -2.01011193069821       -0.99767904959820
O           -0.64430374557795       -3.35878104981614       -0.96702434833599
C            0.18164803279716       -4.17013132140401       -0.22180875071062
C           -0.09804712367481       -5.53460561256321       -0.16296048618542
C            0.66404727414309       -6.41823092248777        0.59041211763076
N            0.34939100295606       -7.78350843773156        0.64196311945640
C           -0.28850947288462       -8.50820049714828       -0.48467764765965
C            0.71018860861907       -9.46586515384394       -1.14808816393370
C            1.34778145386529      -10.41299275517504       -0.11507954743228
C            1.94962686356995       -9.62311423883843        1.05993248093734
C            0.89516447683014       -8.69643789607324        1.67021611908792
C            1.76367860446630       -5.89222647384401        1.30972979433394
C            2.06529248046850       -4.56902414721456        1.26388249554932
C            1.29628647028677       -3.66375615869435        0.49973959495898
H           -0.25780527186965       -1.00974486754359        3.70489053337168
H            0.83602226593731       -2.25291824858089        3.05809873095666
H           -0.20995735328310       -1.30767524794733        1.95725013830265
H            3.66737836993128        0.60684553456693        3.48167146924636
H            5.90082333445877       -0.10425144696240        2.75456616628633
H            6.13364113011017       -1.87048874265074        1.05952114420101
H            4.14145021538732       -2.86065565856366        0.04222056085202
H            1.76907120306921        0.38619394628321        0.12622681141637
H            0.28359650898191        1.79979049475804       -1.16012001038953
H           -3.88722053068973        1.35718145136544       -2.82463381119847
H           -3.49947134031690       -0.31368008666172       -2.51608231374722
H           -4.12637798051149       -0.00273704140965       -4.94377411294807
H           -2.44635097195885       -0.47970063520452       -4.80954541505847
H           -3.45413353555215        2.39073274910684       -5.18752438043350
H           -2.62860517058181        1.43545584157182       -6.39617305021337
H           -1.06085522972977        3.06060461905331       -5.24048636043282
H           -0.55972024435730        1.39852890735311       -5.02302295847003
H           -2.09494066131812        3.06368531323297       -2.95235314820453
H           -0.41906299725739        2.56886589088380       -2.84738603489317
H           -2.00295421227978       -1.63602223647639       -2.28327757278127
H           -0.96751504282191       -5.88303467443871       -0.68471469217094
H           -0.68377921209850       -7.79519660140902       -1.21223744005423
H           -1.14863248162831       -9.05790333203594       -0.09169825281769
H            1.49774771678870       -8.87953582719649       -1.63566806148510
H            0.22390571726549      -10.03685839987974       -1.95040122379006
H            2.11154607089314      -11.04511712787774       -0.58793946189473
H            0.58629575824078      -11.10517800389381        0.26318780255748
H            2.79146948967147       -9.02105929792880        0.69898802651970
H            2.36582653975228      -10.29829896914275        1.81946231577387
H            1.28143973305822       -8.12460958580030        2.51867986939568
H            0.06102453832022       -9.28482344899584        2.06506982220406
H            2.39156244467664       -6.55669281037160        1.87446196640560
H            2.90268996410568       -4.19307191478352        1.82419427912387
