63
 energy: -12.684353324719 gnorm: 0.000977380310 xtb: 6.5.0 (97a52f5)
C            0.81073463779591        0.38745765470340        0.27546857185422
O            2.15905687252935        0.05790429181755        0.00369121219257
C            2.75150277561278       -0.79237746755074        0.96376269936263
C            3.93332361724437       -0.37162356884265        1.57540877334479
C            4.52005214847000       -1.10909322908704        2.57616013763064
C            3.94386103710769       -2.29248424712342        2.99224440654631
C            2.79529369174317       -2.74838874552641        2.38523120624859
C            2.19449741811523       -2.03671984995635        1.35399212789183
C            1.03200591147808       -2.61720795363237        0.66373549271091
N           -0.04468339421978       -3.11975502926900        1.30185046831047
C           -0.89355316645355       -3.52469775933860        0.37137218599002
C           -2.17869470932628       -4.14552298015071        0.67982081362122
C           -2.72322139585118       -4.00721776905713        1.95411558725871
C           -3.92803700279931       -4.58987292534310        2.27248857227196
C           -4.61282866394274       -5.33366983793971        1.33235040672782
C           -5.96161427300183       -5.95553526982877        1.68394125260678
F           -5.93129306716901       -6.36203194442854        2.96700334316876
F           -6.91542363716709       -5.02127178086242        1.51396961618483
F           -6.18711217702244       -7.00448402735894        0.87075283672083
C           -4.08254306507589       -5.48424427127651        0.06659246186076
C           -2.87960227624285       -4.90215535452334       -0.25684183579382
N           -0.38671418099683       -3.28156810829529       -0.91211219583029
C           -1.02899708690705       -3.48789089559056       -2.18751056345869
C           -2.11695444323245       -2.71196626427770       -2.55951588680341
C           -2.72825637255671       -2.90761204120403       -3.77746040603806
C           -2.26947251033949       -3.88186791275866       -4.65352808354832
C           -2.91870441011551       -4.09451324796073       -5.97645722355656
C           -1.17509760478464       -4.64865751781967       -4.28004096291696
C           -0.56112323090922       -4.45586191284045       -3.06310279789148
C            0.86104704642106       -2.72544796991502       -0.72806054441362
C            1.79037107385681       -2.33115131916556       -1.78875375080586
C            1.33877371837668       -1.53345100254121       -2.83670299612906
C            2.20189643516337       -1.05376824502412       -3.79381200868971
C            3.54723923519127       -1.35949273894730       -3.72446737568359
C            4.01933363375629       -2.16388788326485       -2.71585894778109
C            3.16214512068890       -2.69126390250207       -1.74755508273933
O            3.70261275225127       -3.57600062827749       -0.78934796194166
C            3.04937595427942       -4.82897720450390       -0.72262154896283
H            0.53523814119919        1.25241409955187       -0.32928702117924
H            0.70024954326732        0.63412849292885        1.33237593563562
H            0.15932808586022       -0.44776516153544        0.02066817835139
H            4.36316285382219        0.56233971349393        1.25931452995877
H            5.42562900894892       -0.75811496894675        3.04330585755611
H            4.40015699141848       -2.86562340292984        3.78254476408103
H            2.35890986904592       -3.68465770475811        2.68734468923781
H           -2.18529032851891       -3.43261803963314        2.68786778189314
H           -4.35088967687646       -4.47775922854757        3.25650511939270
H           -4.62443460386794       -6.06621247893186       -0.65955287938200
H           -2.46708916917546       -5.03902698864256       -1.23916620939460
H           -2.47514812414015       -1.95864028561305       -1.88002976751014
H           -3.57222628086255       -2.30157801854072       -4.05865067316818
H           -3.84167025803670       -3.52070903888107       -6.06319937831893
H           -3.16664813291598       -5.14628514229613       -6.12237953936409
H           -2.25585334045340       -3.78740997960301       -6.78589023053899
H           -0.80642106789832       -5.40045762910008       -4.95666854818718
H            0.28767045780086       -5.05074738775520       -2.77555646767815
H            0.29528642676833       -1.27445788479598       -2.87500154860855
H            1.83098652474670       -0.42928221130798       -4.58982449838563
H            4.22563011961156       -0.97251750898115       -4.46709810201791
H            5.06183196596007       -2.42384702488845       -2.66555321241307
H            3.68861535624067       -5.52742465006891       -0.18040740862976
H            2.87787753070569       -5.20539412124043       -1.73251445564026
H            2.09945169538034       -4.73224258951499       -0.19683891521192
