43
 energy: -8.999872397171 gnorm: 0.000348455605 xtb: 6.5.0 (97a52f5)
C            1.10271751491461        0.24158439718284       -0.10710176630723
O            2.47225456537825        0.02224322495590       -0.38670494378342
C            3.11543690552763       -0.88549466557176        0.47762204490019
C            4.41451838533217       -0.56526289205841        0.88190952780371
C            5.09791263581693       -1.34226661007387        1.78678534936523
C            4.50516891987396       -2.47282414043043        2.31308748432056
C            3.23885173648074       -2.83287426477526        1.91120144584776
C            2.53093350382294       -2.07601844225804        0.98249497786012
C            1.23117243498578       -2.57145026621846        0.51427987563498
N            0.85748725383988       -2.65065558282027       -0.75908168698393
C           -0.38272624398834       -3.18148356217211       -0.76425039932531
C           -1.17031562329875       -3.37039656013109       -1.99175826903934
C           -2.55661458683202       -3.22446572413058       -2.00415532982684
C           -3.27125968337706       -3.39175120618179       -3.16922961564791
C           -2.61638432188415       -3.69831557640043       -4.34555132414869
C           -1.24202617416415       -3.83060750009349       -4.35446641750139
C           -0.52520960387376       -3.66364040685564       -3.19043725658654
C           -0.78255663384475       -3.46839482129343        0.56233636654080
C           -2.00371129447715       -4.12140425074252        1.04414819413808
C           -2.59502331332387       -3.70962012669407        2.23725086795388
C           -3.73495486394189       -4.32363251366829        2.70635043599842
C           -4.30224148441896       -5.36501231023780        1.99860750738188
C           -3.72294013128854       -5.79463502781361        0.82101539944221
C           -2.58324254547013       -5.18318265577905        0.34917480087312
N            0.25319911938056       -3.06855794491046        1.35490663724683
H            0.83283486835393        1.24967281103017       -0.42448725778006
H            0.91537412543383        0.14155480858595        0.96302562355432
H            0.49665342921348       -0.47629710814663       -0.65913061375940
H            4.86239419927388        0.32815186346278        0.48429553322654
H            6.09380168923869       -1.06492513666811        2.09150696118766
H            5.03836949872611       -3.07946773082096        3.02650746943826
H            2.78904609652068       -3.73244847216925        2.29430010578240
H           -3.06483522399605       -2.97049494285564       -1.09042521949891
H           -4.34336444021246       -3.28198779042760       -3.16297160929164
H           -3.17684317789659       -3.83000530372973       -5.25659551227584
H           -0.72946917484222       -4.06316056157656       -5.27355364764833
H            0.54646607176627       -3.76039083166161       -3.19155602404357
H           -2.15269268075767       -2.89551416584549        2.78461739651566
H           -4.18495685982042       -3.99096340945501        3.62744577213460
H           -5.19489903136426       -5.84375447319524        2.36659116996762
H           -4.16298675440298       -6.61006242485511        0.27055297735199
H           -2.12360654309757       -5.52410828054011       -0.56225233460438
H            0.31126743669231       -3.15399942195745        2.36897530358607
