40
 energy: -8.569607143510 gnorm: 0.000707747163 xtb: 6.5.0 (97a52f5)
C            1.97122022466430       -0.57924005384334       -0.83066669427926
O            3.20768538773032        0.10839171843082       -0.78906521714922
C            3.13908314516334        1.45802030228163       -1.19246068416163
C            4.08209362227995        1.89277062722042       -2.12947691172052
C            4.04338893389859        3.16361781931269       -2.65008373171580
C            3.06077932069619        4.04641679900097       -2.24717474872001
C            2.13858397390814        3.65843396488140       -1.30238908998241
C            2.16854220378462        2.38816138429545       -0.74103986217932
C            1.22396915111850        2.09414253853528        0.34227007017780
N            1.48471160958354        1.29704450693731        1.37269528104526
C            0.37677384275906        1.31927782635572        2.13287012830496
C            0.09605283625285        0.62243182501347        3.36380386561133
C            1.04372779523719       -0.22730336982966        3.93498724163387
C            0.77227981581764       -0.88789885745641        5.10340454401707
C           -0.45442948897247       -0.71296253153330        5.72609055481663
C           -1.40068019862304        0.11738256505225        5.17923914253834
C           -1.15934690587495        0.81000128612564        3.98525731503182
C           -2.15481640306012        1.70102491864613        3.37701468196181
C           -3.41303629722953        1.92509488280570        3.95147598005601
C           -4.32777020317949        2.76108682763812        3.36132030634243
C           -4.02478304010892        3.40903336671049        2.17288987641632
C           -2.80480669183096        3.21494234796556        1.58213390771803
C           -1.86216907724538        2.36906673108108        2.16644841394850
C           -0.57941376104365        2.16751845772521        1.54701517024366
O           -0.02929733792458        2.66481306110068        0.40432592488192
H            2.16510141814778       -1.64822950412500       -0.92716465195924
H            1.38479829204769       -0.23968407229927       -1.68561806798791
H            1.41837436848570       -0.40347208432783        0.09098840949469
H            4.83000158854690        1.19232741816921       -2.45652606701356
H            4.77476301564902        3.47024400002951       -3.37978306906464
H            3.02427937132271        5.04061241031789       -2.66124499800826
H            1.38638270345590        4.35062654218460       -0.96416745823031
H            1.99058613269213       -0.35422883923078        3.43988048426509
H            1.50993969820637       -1.54168631155518        5.53910752435386
H           -0.66411116937962       -1.23341706906273        6.64621576754969
H           -2.34311690716696        0.23337499667468        5.68207385001888
H           -3.67417909631685        1.43667432928471        4.87222295642435
H           -5.28895523781934        2.91684164339315        3.82320802969884
H           -4.74862362553886        4.06402095679761        1.71631484382537
H           -2.55471301013306        3.71152663930098        0.66038698179587
