35
 energy: -6.899028104503 gnorm: 0.000892826783 xtb: 6.5.0 (97a52f5)
C            0.93861968324102        0.45844324037954       -0.12568113890277
O            2.16517728983631       -0.14345365650723        0.20431343321780
C            2.84384697348843       -0.76741584723163       -0.85288142289464
C            3.95797014084657       -1.52963608452134       -0.50160662088893
C            4.69886265265374       -2.20237900060375       -1.44770012121650
C            4.34803556692177       -2.12944799702301       -2.77865964431200
C            3.25708142425862       -1.37678201347367       -3.15732610843666
C            2.50363735793032       -0.69441764772751       -2.22128831707412
N            1.38691599664202        0.09659849339254       -2.70315357946144
N            0.21803863080515       -0.46419402155340       -2.99118797389042
C           -0.48464707153311        0.55165898968923       -3.44199034708511
C           -1.80941906773250        0.45678534777150       -3.89788228375389
N           -2.90403965941812        0.37511319598546       -4.27721695938134
C            0.34126791417940        1.72574402819416       -3.40548926909177
N           -0.05977190764413        3.04053590135502       -3.79184333635808
C            0.91115446426019        4.15153733261451       -3.70416233283451
C            0.22373464491391        5.27171370860237       -2.91061186175746
C           -1.28838039691622        5.01747651203825       -3.07111115594971
C           -1.42343480512864        3.53932541864725       -3.48069873602665
N            1.52194146204533        1.40650479894870       -2.94376184267151
H            0.44629157259452        0.77707173076775        0.79417885878856
H            0.30400800322128       -0.26155103439196       -0.64458280563219
H            1.12135308690054        1.32998238193528       -0.75548211779791
H            4.22323314388494       -1.58592443314799        0.53946558187348
H            5.55197891380597       -2.78802830561259       -1.14668529790842
H            4.92563943994919       -2.65553502092682       -3.52092420224108
H            2.97799972225730       -1.30706266781018       -4.19461945035883
H            1.16812358481564        4.46769265730888       -4.71986575347542
H            1.82830906740998        3.79790712959582       -3.22240182582812
H            0.51594860457541        6.26678141515005       -3.26830747655733
H            0.51029194249842        5.21959203493193       -1.85372732480431
H           -1.70399014810561        5.66902774739235       -3.84890019212524
H           -1.84226160529644        5.23900958216776       -2.15050005911228
H           -2.06472883996495        3.40104903514477       -4.35672965619789
H           -1.83756778219675        2.93340704851805       -2.66912865985547
