32
 energy: -6.402058753508 gnorm: 0.000646639204 xtb: 6.5.0 (97a52f5)
C            0.96349272533829        0.09233864265123       -0.06865262329267
O            2.15389802130543       -0.48383719936726        0.42051949031015
C            2.83836182839014       -1.29522910211078       -0.49016373997040
C            2.40488701256107       -1.54632395346279       -1.79596535501949
C            3.12971874828405       -2.35159572312040       -2.64145685736978
C            4.30755720529666       -2.93196513642510       -2.21273781701163
C            4.75796340836664       -2.70325682533959       -0.93169400440556
C            4.04430528446813       -1.89439317783615       -0.05858675677794
C            4.50966056758357       -1.65680201210991        1.24363154355611
C            4.87258998371097       -1.40843579912848        2.38432007646196
C            5.23827467785092       -1.06901533405370        3.69678566715066
C            4.49077778668788       -0.06736879686785        4.30568355291644
C            4.75194997683179        0.34992136203761        5.59152791913368
C            5.77898991732649       -0.23372394976638        6.30381678099470
C            6.53359748859233       -1.22496636057554        5.72730974563153
C            6.29631058174894       -1.67245634453977        4.42149429346493
O            7.15837991461829       -2.68998047327118        3.98327302226180
C            6.98639033225934       -3.14339493036729        2.66215848574730
H            0.51563585837353        0.69344821823375        0.72367252967001
H            0.26043521324993       -0.69058503830561       -0.35579433576483
H            1.18503927235131        0.73872755371886       -0.91889250030403
H            1.49107726310820       -1.10387671262326       -2.14755894525092
H            2.77879676502176       -2.53093779951233       -3.64459054016407
H            4.87280878446680       -3.56210255887592       -2.87962243450598
H            5.67592838156932       -3.15219322345164       -0.59293207673204
H            3.68796964316402        0.38493859140641        3.74767744182641
H            4.15613035406171        1.12805952522512        6.03960307572087
H            5.98784136010674        0.08810534818261        7.31096856299684
H            7.33632545443306       -1.68402200857471        6.27699856298169
H            7.73644106987534       -3.90772199042456        2.45479044737585
H            7.12359770563374       -2.31558011248974        1.96554761559177
H            5.99465741334936       -3.58233467883156        2.54789917278429
