49
 energy: -10.291465214890 gnorm: 0.000711864020 xtb: 6.5.0 (97a52f5)
C            1.61615079477465       -0.34227668314682        0.02738445631662
O            2.79178263199440       -0.41436680122205       -0.74616422290256
C            3.33644878974341        0.80211910457173       -1.18655183967112
C            4.58470850083674        0.70317487132234       -1.80933337412131
C            5.23011163787913        1.80287209023929       -2.32184367513244
C            4.64477648692517        3.04985548960217       -2.23223322963287
C            3.41718619091072        3.18574549599832       -1.62768099647990
C            2.74259542576832        2.08921432282939       -1.09662300241829
C            1.42502306458714        2.32258909880470       -0.48317340431373
N            1.26356059888881        2.58142263176419        0.78073194132305
C           -0.10759456319150        2.73789149407949        1.07945060476142
C           -0.65838972225422        1.61405671481186        1.94100405545902
C           -0.35945819487939        1.18184143794489        3.19933248356929
C           -1.02318185231769        0.04963551011684        3.71326478416994
C           -1.95694673730918       -0.63594654748960        2.98114209211979
C           -2.28619069307060       -0.22063876848530        1.66894621560542
C           -3.20955916506090       -0.82771889563653        0.78508439479352
C           -3.40672501744482       -0.31757776942882       -0.47134718894361
C           -2.71011810759180        0.81811755399250       -0.93074709035385
C           -1.82048815693503        1.43619629085011       -0.10129363463546
C           -1.61695256400890        0.90767921732307        1.18861191646736
C           -0.89597823079258        2.61928196964941       -0.27814177762758
N            0.20423463853650        2.36382045731187       -1.21881585439151
C           -0.01371556491101        2.12046695563125       -2.60534325028296
C            0.82016628449591        1.26950504017426       -3.32915758346718
C            0.59466318289831        1.02303619888889       -4.66338922498190
C           -0.47072751678108        1.62112921824551       -5.30719857535991
C           -1.31052009693553        2.46512126005436       -4.60699063508933
C           -1.08691969692662        2.71216579878300       -3.27157599637844
H            1.35751378487706       -1.34342260841454        0.37369571629502
H            0.79395615920733        0.04122923499805       -0.57678777988520
H            1.78292403784323        0.29816613287714        0.89377528034176
H            5.03317206502142       -0.27180501415791       -1.88319926760897
H            6.19152680357003        1.69185038845458       -2.79607917890636
H            5.14744533727995        3.91330388089382       -2.63616720449163
H            2.95407326826686        4.15524869352845       -1.55959305459139
H           -0.27230825070127        3.71296637029266        1.56513332918473
H            0.38199536084130        1.70006882434337        3.78137460538708
H           -0.78205020250891       -0.28664004690495        4.70818916830792
H           -2.44717704942149       -1.50129974130742        3.39162259040280
H           -3.75002949309616       -1.69816205445383        1.11355630744916
H           -4.11001990544771       -0.79739049217768       -1.13181031365796
H           -2.86315331192699        1.19224896994038       -1.92701016794838
H           -1.43945054601318        3.53707086573249       -0.53755293058950
H            1.63154446797226        0.78128456279281       -2.82276635398986
H            1.24859984560927        0.36002399283686       -5.20604171423514
H           -0.64612972134045        1.43005333085296       -6.35324632993894
H           -2.14130323827953        2.93367905545303       -5.10891710317213
H           -1.73536175958257        3.37978289683660       -2.73282398674752
