50
 energy: -8.998564804995 gnorm: 0.000457491149 xtb: 6.5.0 (97a52f5)
C            2.00817601909797        2.24509708711539        0.15051484603061
C            3.23700812380934        1.40252577087586        0.02697072896284
O            3.96324026433145        1.30400426303797        0.99832991163144
C            3.55514045079543        0.75030352957624       -1.24628672664877
C            4.35283372307217       -0.40887413190991       -1.30070963184654
N            4.44269860673714       -1.31849878462102       -0.26883560456185
C            3.56259887493303       -1.53271250390741        0.88396615822719
C            2.54199058886004       -2.64927267354858        0.66493171310250
C            1.54859517255069       -2.40149945543964       -0.49455285468403
C            2.12609593200077       -2.83564627147376       -1.84231014419957
C            0.21519294111639       -3.10802724256483       -0.23335986661316
C            4.43597481111858       -1.81076042778546        2.09860843690480
O            4.58493189150958       -2.95002187183197        2.48181198724961
O            5.01983896681546       -0.71767672728266        2.64684041410211
C            4.98411090008141       -0.74375341520723       -2.55443085666311
C            5.96928798152884       -1.73424430445716       -2.67008739386564
C            6.51873409841782       -2.05477431893489       -3.87969783650247
C            6.11606964355450       -1.40103371298319       -5.05510167984042
N            6.67717733139255       -1.72990872205231       -6.29966988992859
C            7.68173786878371       -2.78544254830167       -6.43136736721325
C            6.28798172845114       -1.02930762347240       -7.52388552703991
C            5.14810967131025       -0.41186760198828       -4.94359855494809
C            4.58103546954906       -0.06617149755518       -3.72185432274807
O            3.62639826530719        0.93618138294415       -3.70322058273990
C            3.14435687544573        1.39317941358807       -2.49237345746557
O            2.37693674665164        2.34824452560947       -2.45589319654837
H            1.66666442565055        2.26948290379410        1.18427838530251
H            1.20303553304307        1.85614247825836       -0.47215832759532
H            2.21595273307764        3.26601298016951       -0.16726286117279
H            5.00936394441627       -2.15314232692186       -0.38128579726995
H            3.01315825344502       -0.60234498314237        1.06380488270530
H            1.98544831375803       -2.79175140443063        1.59795524318027
H            3.07147212140025       -3.59206765415920        0.50199538295728
H            1.35538087721041       -1.31508608901221       -0.53382234066416
H            2.31104081135379       -3.90955657015210       -1.85328037834857
H            3.07104100911129       -2.34087005832706       -2.05564371970722
H            1.44093209593912       -2.61174312300735       -2.66060818083324
H            0.35935798554434       -4.18599104079719       -0.16372010749100
H           -0.49843133086586       -2.92218396179554       -1.03667450774719
H           -0.23956209311003       -2.77458627872986        0.70006618067536
H            4.74569571002456        0.07123886403369        2.12824729937062
H            6.32662843165861       -2.23378804618512       -1.78844392837850
H            7.27638826418002       -2.81563379733435       -3.93326213209434
H            7.27761728776739       -3.72908845813750       -6.07074164348659
H            8.56784543342895       -2.52852264614046       -5.85457528638021
H            7.97784768522718       -2.91816188278066       -7.46939921446170
H            5.23029913908859       -1.18932714083133       -7.72255725795676
H            6.85395964119214       -1.39017580377546       -8.37953715871046
H            6.47765049609554        0.03676191717514       -7.41766796687254
H            4.81262028413468        0.11584998479721       -5.81529526717970
