59
 energy: -11.935219522013 gnorm: 0.000761736893 xtb: 6.5.0 (97a52f5)
C            1.78358323948014       -1.41450866729932       -5.81329413321864
O            1.53032113851211       -0.73821239780536       -4.60131847710447
C            2.50137281598076       -0.87388308829847       -3.63236315813462
C            3.67219779885006       -1.63357279386412       -3.81885653386119
C            4.61273072358142       -1.75028167743692       -2.83304134419429
C            4.43068281637818       -1.10966885240892       -1.61619107406952
C            3.30391728713360       -0.36160825368547       -1.40083426607752
C            2.31201757527179       -0.22159923950863       -2.37116938851672
C            1.13394159770813        0.57331966249326       -2.10793837572577
N            0.65237677477665        1.02590693653756       -0.91115685204925
C           -0.50501152984816        1.76119110403525       -1.07322383938903
C           -1.25463243431977        2.33436588266674       -0.03126365086463
C           -2.49001790774656        3.10039929218270       -0.28521972520716
C           -2.69204646442391        4.34702683022594        0.31328445061629
C           -3.85049477505003        5.06283996608093        0.08227076249406
C           -4.82631724071598        4.54759257396019       -0.74498255694713
I           -6.57067887007164        5.62893325923501       -1.08937013149636
C           -4.65078641042540        3.31757401534157       -1.34361023204205
C           -3.49395328472999        2.59749848775510       -1.11733915856360
C           -0.80412114800351        2.08650903177224        1.27629480851513
C           -1.43407339196480        2.39322882778925        2.51689299546520
C           -0.67686752282288        1.85673978872101        3.51649331348663
C            0.45168796358282        1.19828827774157        2.94505051314593
C            1.49009417587147        0.50927346198114        3.67734681553709
C            2.76473691887392        0.35461804281404        3.13169822686576
C            3.79654287524723       -0.19666017594874        3.84603210726910
C            3.59164199892107       -0.61151146391480        5.15544150570840
C            2.35421891122440       -0.49652160921035        5.72506525797743
C            1.26349520632490        0.02980244129258        5.00686853356385
O           -0.00736982798011        0.02675339001057        5.60564848865593
C           -0.93214264767954       -0.86442307809790        4.99766983532375
N            0.33074977922783        1.37342596144008        1.59701391374365
B            1.28022623421229        0.87167798272034        0.49114013766626
F            1.53713446496322       -0.47266934028239        0.72015747750300
F            2.43003665838916        1.65051329023809        0.52710022672357
C           -0.75587022356389        1.78587788647183       -2.47421967745023
C            0.22219044677104        1.06191990368197       -3.08828363745400
H            1.85509329518053       -2.48793551982060       -5.63216346945792
H            2.70073182962871       -1.03699493814524       -6.26768344281963
H            0.95156851864143       -1.22726309321682       -6.49343855139321
H            3.83413933765454       -2.13738288558642       -4.75382484722029
H            5.49970029771722       -2.33912581586662       -3.00067951397250
H            5.17708990005198       -1.19870043779450       -0.84405521852869
H            3.17932845826629        0.15281415468190       -0.46791287791165
H           -1.92287169333556        4.75290434400366        0.94701322493143
H           -4.00264760941067        6.02713239481078        0.54225057251746
H           -5.42646997580581        2.92576625146884       -1.98346933442614
H           -3.36683782315183        1.62651383174625       -1.56315321939690
H           -2.36185603099729        2.92617370826145        2.63615105409373
H           -0.88563681012072        1.91558396244449        4.57149669193809
H            2.93306641435907        0.70533521681660        2.13156548317791
H            4.77135248450810       -0.29611537891443        3.39767271437738
H            4.40804778009317       -1.03227563161323        5.71908723454308
H            2.18072027364605       -0.83532120729338        6.73092363590470
H           -0.61092247891278       -1.89140381525732        5.17526648918904
H           -0.98601389139597       -0.68369851765506        3.92394122390072
H           -1.91555887619297       -0.71131264717958        5.44350794878731
H           -1.57130323747529        2.29234331182147       -2.96141110840076
H            0.31042611523785        0.89332705286765       -4.14762784775739
