83
 energy: -15.725763836638 gnorm: 0.000583670568 xtb: 6.5.0 (97a52f5)
C            2.14384352695091        3.09075112430652        0.60287619302481
O            3.15920695758567        3.01177295529994        1.58697432229604
C            2.97024845505595        2.00729244240265        2.55152165235506
C            3.26909213107987        2.32277284296715        3.88318912028452
C            3.06726827014698        1.41793871690729        4.89488794209648
C            2.56750710033086        0.16037286461408        4.61033420358630
C            2.29434823324515       -0.19052559425032        3.30831644383434
C            2.49806114881739        0.70090985620694        2.26150004946305
C            2.31434451579984        0.24121134439011        0.88014759617103
N            1.07324377880328       -0.11412898730682        0.26076777797029
C            1.19440432376671       -0.43145495035425       -1.03519262523343
C            0.11556080645923       -0.74874688678016       -1.87602003467241
C            0.31327539908408       -1.02671890500911       -3.32101392051033
C            0.18831582218002       -0.00605958421666       -4.27000356856346
C            0.37964331566448       -0.26256625215375       -5.60753510296326
C            0.69835025973730       -1.53862503987566       -6.03067996646373
C            0.82487581825562       -2.56096105531210       -5.10994677995778
C            0.63535866050870       -2.31189843824442       -3.77074602503402
C           -1.15205934965318       -0.81752779907253       -1.27062729619380
C           -2.45412556276793       -1.27555168512943       -1.87963590640490
C           -3.41831980938343       -1.16170682425110       -0.73940366500025
C           -2.76555061736839       -0.76914899919088        0.39932288323255
C           -3.40167682220915       -0.44131839775925        1.67801482504955
C           -2.99456541839036        0.66776967206205        2.40671447216452
C           -3.64404663598455        1.05403347903962        3.55606975339418
C           -4.73582293587901        0.33447865540164        4.00542951510114
C           -5.15528668076017       -0.77632954612842        3.31806366726364
C           -4.49332102480211       -1.20857467489565        2.16148948172222
O           -4.93611509276661       -2.39501089026615        1.53583990811522
C           -3.95460912711563       -3.41587107537159        1.47292392088146
N           -1.39316285679971       -0.56330465553051        0.02578437197477
B           -0.30541433452227        0.06952872556868        0.91338205265129
F           -0.53961925893908        1.43765128226408        0.99958581625646
F           -0.32016298659103       -0.55122459445218        2.15442633843152
C           -4.81279400792006       -0.84660457352560       -1.17690250264871
C           -4.69573901004977       -0.48360013810481       -2.81679896339407
C           -3.21425055976898       -0.70467099696446       -3.23454689929485
C           -2.55366083485939       -2.45795380657872       -3.00226460959386
C           -3.01231174059297       -1.80191671460611       -4.40817426442906
C           -5.09936121589368        0.66987023414080       -1.73581844455399
C            2.66421000205202       -0.32418893623747       -1.35613390151914
C            3.28219015463956        0.10922527407808       -0.06865618667445
C            4.78167747175190        0.37082922529211        0.03805456779960
C            5.53478189847457        0.14131166040494       -1.26331923529008
C            4.85438661730121       -0.29421487308810       -2.51478282844338
C            3.62592724384507       -1.36108031444137       -2.21920814667619
C            3.37531023444330        0.39119286002216       -2.65465579525407
C            5.38074877534404       -0.42325742435442        1.15527841748721
H            2.39507365753136        2.45693636467255       -0.24675689818651
H            2.06207780983963        4.12332422852593        0.26156791532054
H            1.18968420266381        2.77807360866546        1.02902838568285
H            3.64440429207891        3.30750642734403        4.09817027707013
H            3.29257615783863        1.68917362963860        5.91327927229021
H            2.40215890307896       -0.54719215343650        5.40606807286384
H            1.92021829082799       -1.17389492519920        3.07986310259342
H           -0.05704102977560        0.98682485292602       -3.93473650907905
H            0.28029103877220        0.53330438245980       -6.32720375447416
H            0.84706713197056       -1.73700876858316       -7.07938997962115
H            1.07203206399521       -3.55592672557639       -5.44188408512012
H            0.72871442011387       -3.10541241282911       -3.04959233923611
H           -2.14744146908907        1.22563970128627        2.05503251379721
H           -3.30629640191865        1.91952002117151        4.10212162636268
H           -5.25156810268991        0.64163896906549        4.90047834287314
H           -5.99334209131502       -1.35231507095544        3.66825897693758
H           -4.40933965365516       -4.31868525887732        1.06379382609250
H           -3.58120617248098       -3.62308397939617        2.47645578819213
H           -3.12650836687279       -3.11254423659472        0.83365973586969
H           -5.60304296002228       -1.55721759984872       -0.92390467466578
H           -5.48671197263232       -0.92366885771729       -3.43329166277709
H           -2.66616089582668        0.21597946256743       -3.51913141799742
H           -3.28801759745022       -3.18829662150847       -2.67010199240298
H           -3.93670006299911       -2.17632952854942       -4.85644715726466
H           -2.20567208905785       -1.59111961326478       -5.11470617566613
H           -6.11946131150026        1.03834326504383       -1.81902355536710
H           -4.34067213820289        1.43640967329970       -1.60385843419003
H            4.88302200074244        1.44023844513239        0.28810840822510
H            6.60782595215638        0.11183622278114       -1.22696066051061
H            5.43962063393038       -0.41773164827218       -3.43756227374303
H            3.18793765204169       -1.91755471716058       -3.04782301874239
H            3.39888242236379        1.49404801114516       -2.57851975559956
H            2.85915743801109        0.25944502412100       -3.62435054527649
H            6.42129904757213       -0.22181311235861        1.31247918727737
H            5.23781416163931       -1.47637766169860        1.02575083462858
