77
 energy: -14.351357238049 gnorm: 0.000815656990 xtb: 6.5.0 (97a52f5)
C            2.47006912140591        2.80064360926065       -0.34383296237610
O            3.51074372062266        2.67978328585226        0.61410148555859
C            3.11379995380445        2.12494805033229        1.83143249621102
C            3.57980439665515        2.72510939902259        3.01595954252623
C            3.12651816223191        2.32464791327729        4.24296872181043
C            2.19439910842228        1.29946690972844        4.34343448619996
C            1.75593735545097        0.65591247766910        3.21398703683262
C            2.22050252043416        1.01190117615659        1.94429840264285
C            1.88953583383150        0.18941069115103        0.78621013505186
N            0.65785521563829       -0.16367720469588        0.32767378265892
C            0.72228088769189       -0.88305687839121       -0.85363286096992
C           -0.38317658487207       -1.30858167562059       -1.56348616023998
C           -1.63499161615302       -1.01833940635962       -1.05537370602586
C           -2.93162632884539       -1.38025940619981       -1.54422629251744
C           -3.86368335629895       -0.92271923757814       -0.65594452604215
C           -3.19443185079502       -0.24623690611044        0.42301739141553
C           -3.81966100612994        0.38887134087582        1.56863593612307
C           -3.31326953572074        1.58874461757348        2.07293193272021
C           -3.97364494359970        2.30115674872623        3.04094769283292
C           -5.18172896499339        1.83605047600668        3.54385414229743
C           -5.69136983947838        0.64278392936613        3.11116195556402
C           -5.01133274943679       -0.14148417123372        2.15972841726683
O           -5.49751642540017       -1.42707935640808        1.88795332588458
C           -4.53824987740058       -2.45628040393970        2.08106046201789
N           -1.86887117101933       -0.30648086342150        0.11100049768419
B           -0.69285001374944        0.32882973005796        0.88751840248586
F           -0.72340855279128        1.70835856107486        0.71152613189855
F           -0.80497558120608       -0.04142668927454        2.21965860259683
C           -5.30030906936671       -1.10738677026370       -1.10183862117977
C           -5.43918707428267       -0.38006530946217       -2.47932399945187
C           -4.38853528476562       -0.95524378791253       -3.49750151032308
C           -3.48987798319808       -2.02440486431234       -2.79339112853378
C           -4.42445737908668       -3.18793736571795       -2.32816498525878
C           -5.52971012803552       -2.63213582116940       -1.36064852087924
C            2.12085907379871       -1.02494873860248       -1.13570527826940
C            2.81647694388817       -0.37679532621883       -0.15494526963178
C            4.32244301519983       -0.45515318766458       -0.28080305948574
C            4.69315214235116       -1.97427920072629       -0.30148272114138
C            3.91277555833710       -2.70137109796908       -1.45674258775545
C            2.97527292185139       -1.68813105728536       -2.19261281270359
C            3.88326259079408       -0.57353431758971       -2.80888460019922
C            4.71180160165290        0.13321943073962       -1.67582311633972
H            2.38327248161340        1.88735066203554       -0.93022309428515
H            2.70178565748876        3.62954711572047       -1.01366213946331
H            1.52281668819495        3.00097896295237        0.15974036126624
H            4.27472826939001        3.54132913894747        2.92931399735956
H            3.48105147678565        2.81529807461921        5.13458029544612
H            1.82913588735748        0.99901355096673        5.31162696721136
H            1.06002489932751       -0.16065428751946        3.29468855791276
H           -0.27292895103317       -1.86414327524043       -2.47548143663389
H           -2.38963519002048        1.95940237496129        1.67053316203941
H           -3.56355068687876        3.22995486099594        3.40190751774843
H           -5.70767122993716        2.40829363217645        4.29038539285288
H           -6.60472579264999        0.25549089651820        3.52641104305077
H           -5.04878503998856       -3.41980556982748        2.09239945795117
H           -4.03376458567220       -2.30817724894864        3.03674270426346
H           -3.80120256697278       -2.45049117921096        1.27930228725050
H           -5.99276879485340       -0.70705710063744       -0.34576809537448
H           -5.28714965819831        0.69601539744726       -2.34012103543891
H           -6.45825747105967       -0.49606418510258       -2.86415963557080
H           -3.76229752509053       -0.15211928467600       -3.90150381658169
H           -4.89435895063225       -1.40812060793569       -4.35725522035656
H           -2.67628189392653       -2.37809425716581       -3.44480629037605
H           -3.82721670018070       -3.95642335411937       -1.82490455420705
H           -4.87779876650963       -3.67587085817757       -3.19807430381596
H           -5.52672440047593       -3.17820211299055       -0.41175311584004
H           -6.52579416648849       -2.78346820714042       -1.79093926602299
H            4.80670471352348        0.08421765057009        0.54766835494226
H            4.44939844504975       -2.42354764153818        0.66762460054442
H            5.77470869667233       -2.09349236123431       -0.42836484533184
H            3.31934414840099       -3.53155658845464       -1.05790643117205
H            4.61210066150740       -3.14475359682789       -2.17400820169191
H            2.34500447964482       -2.17884688291544       -2.94978414111313
H            3.25883693101046        0.15530662487710       -3.33746819591917
H            4.54844469105348       -1.00759538952550       -3.56346064142239
H            4.54319769174354        1.21532542979691       -1.68537629293855
H            5.78551174440161       -0.00444968618130       -1.84427020721131
