73
 energy: -15.399950273681 gnorm: 0.000704526479 xtb: 6.5.0 (97a52f5)
C           -0.23487289495465       -1.20051608218143       -0.46302317239237
O            0.79268392341192       -1.81294785798055        0.30203644027667
C            1.94391543798815       -1.03128364184262        0.46290346554300
C            3.18552549153547       -1.64769904903258        0.23806917551818
C            4.35068242203934       -0.92795337456024        0.23520083205014
C            4.32292737770882        0.43980413196905        0.46113616891906
C            3.13275309921695        1.06440722637698        0.73152091507440
C            1.92607757788374        0.36056236138667        0.78698547258912
C            0.72521837022519        1.02901138424576        1.25535548677008
N            0.33894182327824        2.30352015182863        1.00244675819978
C           -0.83663047003833        2.66401843518334        1.63315962947016
C           -1.48811695067806        3.86372634122064        1.43407676396093
C           -0.96966394974439        4.74949609322683        0.51205789830094
C           -1.52695378141041        5.98453563540714        0.00337718041416
C           -2.66177475994536        6.68647216309205        0.33043215308374
C           -2.94954835758696        7.88813307878039       -0.35120534505784
C           -4.10375432204539        8.64705621397398       -0.05548594445962
C           -4.36778623194631        9.80467853472040       -0.72396399743209
C           -3.49727696599207       10.26583930559764       -1.71917525664481
C           -2.37299950955223        9.56425571523750       -2.03421097908816
C           -2.06164106466850        8.35912079675125       -1.36546112905070
C           -0.90509388839501        7.61983203011197       -1.68461964746581
C           -0.64574467224731        6.44307953887134       -1.01966422612778
C            0.44913078783651        5.49216756226072       -1.12888505845971
C            1.60797980388652        5.59640938328842       -1.99717490488541
C            2.87577297491762        5.27732745614767       -1.50217007430557
C            4.01638062847870        5.52541742869806       -2.22158969018680
C            3.93038335184545        6.11078674983500       -3.47563089944974
C            2.70530323918046        6.39840838450541       -4.01615902527135
C            1.51568372028775        6.10892055205965       -3.32832328665664
O            0.30813558963753        6.29088194262529       -4.01481040288156
C           -0.60475278377872        5.20894052771980       -3.89890126121217
N            0.20184712482300        4.54441506686744       -0.19164638360542
B            1.11030846379376        3.35204635852845        0.17404685452800
F            1.56096376518582        2.75715445059559       -0.99528999714131
F            2.14765927653397        3.83553462961698        0.96375488176078
C           -1.23715504109230        1.51306429190901        2.41425024114399
C           -2.30166629552534        1.29519996596185        3.25499058111808
C           -2.42740368499458        0.04573389344950        3.89877273471393
C           -3.50186666959613       -0.22951266017161        4.77367672649115
C           -3.60944303714563       -1.44158488590717        5.38676542326674
C           -2.65406706308571       -2.44022687432881        5.16110719242280
C           -1.60202676535728       -2.21487139914198        4.32561057180951
C           -1.45194368325559       -0.97188960592416        3.67061542352288
C           -0.36965443584409       -0.72503224914352        2.80224542333949
C           -0.26710046797281        0.49569953491880        2.17500861135790
H           -0.96786065543569       -0.73573743914526        0.19556699256573
H            0.19033731886885       -0.44902770365266       -1.13023330297933
H           -0.73237767823977       -1.96671743223470       -1.05890683443845
H            3.19430462836939       -2.70163282612159        0.02377108854030
H            5.28891245052942       -1.42034151148286        0.03877500891018
H            5.23802858392267        1.00830845636468        0.43715842016518
H            3.11122073844518        2.12137522780603        0.92195376089916
H           -2.42065236997535        4.06794963109201        1.92508069985524
H           -3.32043311962980        6.32643802429580        1.09843292354355
H           -4.77573463065499        8.29561496652564        0.70828182471721
H           -5.25325934252132       10.37177226826741       -0.48821365119693
H           -3.72211578224044       11.18270334666856       -2.23894766048103
H           -1.70731319156689        9.92004297743420       -2.80149141966638
H           -0.24296872024719        7.95710579038931       -2.45977192401340
H            2.94244413405597        4.84058718775228       -0.52318478014534
H            4.98019780062038        5.27807311260823       -1.80796853253971
H            4.82854573993352        6.32301139494181       -4.03203085898064
H            2.62822227604299        6.81590039916648       -5.00434208358241
H           -1.10265737476400        5.06559874110523       -4.85894967713607
H           -1.35619515096708        5.43109012934596       -3.14138073611339
H           -0.07242892959387        4.29398277809071       -3.63264875430136
H           -3.02701265995125        2.06883853483363        3.42423200467118
H           -4.23813584690520        0.53558683955247        4.94968836639452
H           -4.43541850087768       -1.63668446539993        6.05082685954087
H           -2.75518108263287       -3.39353228021608        5.65336045945844
H           -0.87053449082863       -2.98529274755811        4.15299199209919
H            0.35801935338095       -1.49111303720864        2.61074749035214
