68
 energy: -14.063007192620 gnorm: 0.000740708458 xtb: 6.5.0 (97a52f5)
C            4.57037417176413       -3.19458532289060        4.17332942585349
O            3.79064105944092       -2.72571541875040        3.09541475367046
C            4.31654274630675       -1.65075526683395        2.40451248263651
C            5.55425157810669       -1.06525583126364        2.72539767766383
C            6.04351746519764        0.00097460281193        2.02018444917685
C            5.32157354075782        0.52663710002096        0.96082677011669
C            4.11172781337365       -0.02131981977240        0.62206672001743
C            3.56946394649582       -1.10004088959637        1.31655760928674
C            2.28822863533870       -1.65384998320605        0.92838975060283
N            1.33390509850048       -1.11633024758895        0.10206997178461
C            0.24576045918433       -1.93882885077906       -0.03829802483425
N           -0.87194035368450       -1.73314505386834       -0.73718190201405
C           -0.94427245615913       -0.51860820025399       -1.28217553721768
C           -2.08672852756257        0.03469352093851       -1.96586299706623
C           -3.32744302499252       -0.66109311072450       -2.29444582240505
C           -4.45929644871604        0.03450732798753       -2.72249699840320
C           -5.61734112066932       -0.63564443396389       -3.04699450324255
C           -5.67236180101184       -2.01249181345081       -2.95704297729815
C           -4.56284513660140       -2.71893645326669       -2.53822550512194
C           -3.40725403754192       -2.04979039279314       -2.20930691613450
C           -1.78371779613746        1.35336085149978       -2.25634129802448
C           -0.48389542093842        1.64634467658480       -1.80203675633019
C            0.19451930345585        2.91817800381721       -1.94691840809465
C            1.58595542990645        2.98880229477392       -1.94435378465997
C            2.25114218478299        4.16697030698245       -2.17115069394921
C            1.53735744737951        5.32986843724038       -2.42087556760537
C            0.16918138553701        5.30779343239815       -2.42137976032030
C           -0.54224833334279        4.12277656832833       -2.16356214623624
O           -1.94813340577706        4.17155526325779       -2.09666001057605
C           -2.46685887382550        4.02597807531830       -0.78215997331597
N           -0.01882487443224        0.48934292468240       -1.23486793735463
B            1.36225232693928        0.22707349892231       -0.63212893326145
F            1.65571671443442        1.23610650989682        0.27119764121032
F            2.28757313167869        0.14880422528041       -1.66236484083071
C            0.52952044776748       -3.09860026287703        0.76841350992735
C           -0.33959607347158       -4.25231015522413        0.98092378680697
C            0.12402900411387       -5.40308806033937        1.62060755334915
C           -0.71034385309079       -6.47848825125207        1.82806824300896
C           -2.02440179941782       -6.43098643311647        1.40647170889476
C           -2.50253386697150       -5.30175984555320        0.77296399164176
C           -1.66840996835271       -4.22913728491029        0.56233686791236
C            1.76908739044715       -2.89303222909521        1.34604129699548
H            4.70382136151698       -2.40090965814680        4.90984081137938
H            5.53496825797805       -3.55026368366825        3.80839586313544
H            4.04430456129430       -4.02566961526975        4.64497768289936
H            6.13222386519424       -1.45797594864002        3.54146216485214
H            6.99437584325119        0.43323658005414        2.28600387427241
H            5.71227089782702        1.36170535934482        0.40286802843916
H            3.56453737372839        0.37414286899061       -0.21155324232002
H           -4.42458477958868        1.10736399994330       -2.79120138630858
H           -6.48393301994560       -0.08384873231994       -3.37278918486088
H           -6.57961587253888       -2.53440319894073       -3.21355913916785
H           -4.60276772872352       -3.79367206840037       -2.46938539765151
H           -2.53929654803457       -2.59428790331171       -1.88959329411317
H           -2.42176445463814        2.05150367468330       -2.76804865479372
H            2.13943619701167        2.08351285833139       -1.78279089423423
H            3.32854457877190        4.18735388048311       -2.16768292681427
H            2.06230242227323        6.25187745697927       -2.60965065547951
H           -0.39261221084315        6.20740266104800       -2.59939101860854
H           -2.15731877525586        4.87894035194388       -0.17726388446567
H           -2.09518890765617        3.10655864757678       -0.32941014352669
H           -3.55563510654426        3.99374701431614       -0.83203205401993
H            1.14752790457510       -5.44968614517218        1.94786813990668
H           -0.33677307593640       -7.36060014619611        2.32191685096851
H           -2.67559002830228       -7.27347169551825        1.57226382880296
H           -3.52801120665029       -5.26072231622589        0.44427783388088
H           -2.03610906500944       -3.34717735745404        0.07478011749624
H            2.26084340811355       -3.56048089373995        2.02952376401837
