46
 energy: -8.752281712607 gnorm: 0.000606559255 xtb: 6.5.0 (97a52f5)
C            0.50243830111985       -1.10318430671727       -1.13039783662963
O            1.73686449178670       -0.85644937546757       -0.48378809351308
C            2.53882463565854        0.15310589781188       -1.06575993392997
C            3.85280604090251       -0.19236933567338       -1.39397886766937
C            4.70999192422112        0.71676177142268       -1.96205543770807
C            4.28037530043181        2.00243903504291       -2.20786612844347
C            2.99411126966328        2.37275161442124       -1.87520557571355
C            2.10825047641299        1.47534879170955       -1.30552451630926
C            0.75192340372468        1.94904867018068       -0.89296461998716
C            0.52878305748752        1.83647504343935        0.58934093788284
O            1.21646603479320        2.48766718097099        1.34356177444576
O           -0.46580527340082        0.98559192445826        0.97849223460778
C           -0.58271139060528        0.93386297632225        2.38952081675955
C           -1.76870751255895        1.67282717833939        2.90152287894356
C           -1.91355426304244        3.02757860846466        3.00059641786551
C           -0.93254811470705        4.05663258645704        2.60448381768392
C           -3.23828318776413        3.34413624777127        3.50602580385950
O           -3.69429535875057        4.45972487228191        3.71120200246172
N           -3.87034211209182        2.11117363893279        3.70091085711355
C           -5.06376796316900        1.51530284822296        4.12339447935116
O           -6.07083680343609        2.07019293006502        4.53891559490329
C           -4.86232356348420        0.08511562806581        3.96402132632593
C           -5.89257936682773       -0.92181796543478        4.29234919398122
C           -3.61247140693757       -0.15660253477067        3.46393476900459
C           -3.01422494409764       -1.46772078901636        3.14719508193643
N           -2.96200966597453        1.07038783751402        3.30678627536768
H            0.32258157005969       -2.17917163238375       -1.12724947902911
H            0.53651137052621       -0.74858696179601       -2.16156811433716
H           -0.29752228792659       -0.60892936307941       -0.57794948400244
H            4.17599243905540       -1.19889644787328       -1.19460671408141
H            5.71688373405619        0.42609131965834       -2.21366046069757
H            4.95148885347936        2.72050038248126       -2.65008684720561
H            2.67305712732393        3.38574520419713       -2.04836235246910
H           -0.02417323946608        1.39780303601132       -1.42765048237575
H            0.62118783063669        2.99576029551831       -1.18119051173236
H            0.34032903580163        1.32091753419375        2.83739747652170
H           -0.64833738170306       -0.12325401708588        2.66786207990240
H            0.07892665712147        3.76714115608718        2.89015099868338
H           -1.16325065593683        5.01103695806480        3.07860458397381
H           -0.94557253961273        4.20228417864751        1.52437978614718
H           -6.76777492631079       -0.44128362708180        4.73116825908051
H           -5.51293746201416       -1.64921185782478        5.01033029260611
H           -6.21529962458050       -1.45530129998320        3.39797660943723
H           -3.76268086195469       -2.25982897939104        3.16379858899915
H           -2.23851854283942       -1.72344963779607        3.86926396955089
H           -2.56747510556493       -1.45581721509036        2.15283854833441
