34
 energy: -7.060576788991 gnorm: 0.000407324136 xtb: 6.5.0 (97a52f5)
C            1.24872137971308        1.22676544108740       -0.68470119006147
O            2.19232058868795        0.25089064593014       -0.29332362935023
C            2.83674845389937        0.53891911090750        0.92706296451147
C            4.22909196703338        0.60248336985889        0.95161192816858
C            4.90437174487899        0.96175675218833        2.09470717221867
C            4.20377452597175        1.26407059451449        3.24510699126188
C            2.82948348541890        1.17990041222714        3.25842269122181
C            2.12238729783848        0.79152792723100        2.12681119671043
N            0.71862554518614        0.61352551034032        2.20960108752152
C           -0.08801354021908       -0.39899322143995        1.73237723683517
C            0.38429434978392       -1.47823623463121        1.04733628284651
C           -0.46378057096782       -2.53049632783072        0.57435828627667
O           -0.00553657116482       -3.49462571423128       -0.02831704451439
C           -1.90982450648006       -2.41995293540454        0.83479028303955
C           -2.78237843424155       -3.39664312319376        0.37672929652136
C           -4.13292792467951       -3.30050227349648        0.61754657405652
C           -4.63526801601617       -2.22264065208051        1.32368085449129
C           -3.78472834925693       -1.24551674314315        1.78478842024223
C           -2.41979020388957       -1.32660602657932        1.54895750151881
C           -1.51574959559965       -0.27815868723324        2.03993002611095
O           -1.91524551759689        0.67391630291020        2.68435752150542
H            0.78061612220825        0.90514266639084       -1.61604191445729
H            1.76003376219667        2.17740939262654       -0.84207150019325
H            0.48495913407010        1.34320427346433        0.08343223498270
H            4.76390347623603        0.38828805049384        0.04333748401527
H            5.98054876772238        1.01696664508994        2.08935947078804
H            4.73405410457318        1.55449538433703        4.13717576450457
H            2.28541037905055        1.38475976334062        4.16375583899754
H            0.21861876998918        1.25811316363370        2.82313910300637
H            1.43208996490234       -1.54687956067723        0.82922584400221
H           -2.37899526874222       -4.23107241419668       -0.17125951878548
H           -4.80041956890396       -4.06519235361151        0.25571687435107
H           -5.69367947058176       -2.14882914442023        1.51222319842647
H           -4.16321628101943       -0.40120999440462        2.33533266922960
