28
 energy: -6.052776288944 gnorm: 0.000978832476 xtb: 6.5.0 (97a52f5)
C            1.26436875814993       -0.56022478107272        0.15669944441346
O            2.22000652037308        0.47109207762524        0.13475552801362
C            3.00041339808112        0.53811779679558        1.30941467637819
C            3.86046664543143        1.60113160545488        1.58388083967620
N            4.47103849898803        1.37049560146314        2.80770674953361
C            5.32704998795208        1.75701027800263        3.80868594247333
C            5.29976539283234        0.75672071670511        4.78709136888403
C            6.07143495752924        0.75815573788541        6.03353781092104
C            6.00346890659701       -0.34469637051063        6.88162780974650
C            6.71085785624966       -0.37731915376007        8.05928003487046
C            7.51323856572475        0.69685259756943        8.43256850101361
C            8.23386898559234        0.66494238214330        9.63282098156604
N            8.82888731309131        0.63404654374795       10.63055322766341
C            7.58294989135351        1.80201164190713        7.58886547689981
C            6.87560546272273        1.83370126957466        6.41043681259842
N            4.46637848933591       -0.23962158525740        4.45779143508500
N            3.95801789382334        0.11912386587080        3.28672162120117
C            3.06058007749758       -0.38029731989126        2.34967911320350
H            0.65778321888571       -0.49000240337726       -0.74753228513302
H            0.62261737037857       -0.44633378857401        1.03196981290715
H            1.76884990678212       -1.52747093396520        0.17691906280919
H            4.02406617983035        2.46011343878077        0.95969484026296
H            5.89739585635312        2.66768923177077        3.80865014493803
H            5.38283761183814       -1.17608614492664        6.59627020723829
H            6.65161079635470       -1.23552655130750        8.70690967271486
H            8.20127960685936        2.63613351156789        7.87416462317396
H            6.93821075147200        2.69793959576846        5.77334847250391
H            2.52802109993255       -1.30714885997145        2.44124807444758
