32
 energy: -5.966050073948 gnorm: 0.000764812457 xtb: 6.5.0 (97a52f5)
C            1.25015252935773        0.21083436419239       -0.36487843876844
O            1.58451260579455       -0.73234687806758        0.62605386970800
C            2.58897404851213       -1.60591716540707        0.27205355956837
C            3.31715777148786       -1.69873948148106       -0.89251984833459
N            4.25010103709785       -2.67733607986753       -0.94677406270540
C            4.30595990111581       -3.39536381086857        0.15169652061953
C            5.20615107594469       -4.48597502552928        0.33915212787731
C            6.10632834400310       -4.84272785882641       -0.67753991754297
C            6.96615840092090       -5.87932548446658       -0.50068295907591
N            6.97670149657428       -6.60134116108319        0.66701989233616
C            7.89790977969330       -7.69198744645497        0.83745255832182
C            8.86430752536055       -8.05927414318669       -0.07882553852137
F            9.10185688007615       -7.47015015594204       -1.26121659553709
C            9.65668433509787       -9.23564619871635        0.41295153149387
F           10.94565084917744       -8.90155673124833        0.55073232820957
F            9.50301585893246      -10.27713446249380       -0.41391873667790
C            9.02735422169864       -9.54987684652256        1.80095879050642
F            9.94090495425576       -9.40688327715331        2.76918017837574
F            8.49537875864994      -10.77827738216692        1.80277772698009
C            7.94969844306378       -8.51509836008156        1.94586540690747
F            7.17357608679482       -8.42696464395383        3.03731863385008
C            6.10007297956396       -6.26809659370698        1.66974855403161
C            5.22834117948958       -5.23596066138160        1.52744131966600
S            3.13769226361084       -2.84756414341080        1.35280060312326
H            0.43762056206210        0.82607851463009        0.02881402797784
H            0.91066198885229       -0.30887353336801       -1.26374447661802
H            2.11746889663179        0.84160545307106       -0.57346179752714
H            3.17848054687591       -1.04285372778702       -1.74134526528903
H            6.10267802842110       -4.27899326925173       -1.59605347206277
H            7.66358248372067       -6.15276497886871       -1.27440790832020
H            6.12139145493697       -6.84865659536224        2.57661731435524
H            4.54780471222058       -4.98365223524077        2.32345407307283
