39
 energy: -7.574928073579 gnorm: 0.000954220548 xtb: 6.5.0 (97a52f5)
C            0.89930313589366        0.09853102757310        0.33370636008417
O            2.24809633239804        0.32960221626769        0.01659091849473
C            3.03562540932605        0.76956311889863        1.10201390862020
C            4.14130638658469        1.52520982955797        0.83911823634296
O            5.00793916536769        2.03961263959493        1.76297913693142
C            4.74119518356697        1.76608975725964        3.09121820295095
C            5.59030604576832        2.27224063207381        4.08017878099542
C            5.37938593020903        2.01978162378756        5.42489672207945
C            6.29397864996823        2.56263449784147        6.44847692924382
C            6.84213725698903        3.84023992727194        6.31804168199225
C            7.69551012617623        4.34508273139433        7.26655254501299
C            8.04833667963553        3.59587815220607        8.39374582038331
N            8.92517694241506        4.11255934437908        9.36529568018645
C            9.51485470005380        5.44462707946502        9.23174527891694
C            9.29425890201244        3.33887656183676       10.55133964600972
C            7.49849238402278        2.31635349154807        8.52238919260057
C            6.64238698501717        1.81409709508537        7.57490340789692
C            4.27316179174525        1.23322993296964        5.78912597466028
C            3.42576484087596        0.73208672568687        4.84019133485538
C            3.63650530224695        0.98361746553642        3.48500172573137
C            2.73606269016855        0.44850925960447        2.48194277309745
O            1.77494893253274       -0.24706436605624        2.79707320541662
H            0.33830250368954       -0.06300465048937       -0.58787252164054
H            0.49527212443151        0.96228539164801        0.86349446303573
H            0.82782050173784       -0.78862910052611        0.96518005834212
H            4.37362651965888        1.75820102443903       -0.18877871874408
H            6.43686742315658        2.85585543965511        3.77092609072906
H            6.57137993226672        4.44019512223977        5.46661326230843
H            8.09691672830973        5.33482275270801        7.14385390293660
H           10.08014017119875        5.50931596383115        8.30481070783145
H           10.19001994443157        5.66090935766819       10.05643142696832
H            8.73113062114049        6.19867067440414        9.22712994113382
H            9.80374109907037        2.42485671028446       10.25340390291483
H            8.40383030070669        3.08397586795102       11.12169651705446
H            9.96012216472334        3.90437079744002       11.19894945757230
H            7.75477514268522        1.71517259614647        9.37608059347598
H            6.24343137678894        0.82071430326455        7.68519897576679
H            4.08730309668093        1.04261101534360        6.83155379662616
H            2.57662657634694        0.13433799020897        5.12396068118768
