41
 energy: -8.889964360213 gnorm: 0.000632824665 xtb: 6.5.0 (97a52f5)
C            0.47012429351918       -0.95301204365370        0.01851889826210
O            1.59017722640320       -0.33152877055245        0.58718201963224
C            2.59422792042333       -1.24089809972874        0.89974193079894
N            2.37770819805930       -2.52865040132190        0.67386910481961
C            3.37971955316187       -3.32294513837048        0.99434748946041
Cl           3.16559521949134       -5.03747831146369        0.69557534248379
N            4.52882084761503       -2.94380027091471        1.51745058100990
C            4.63199238042746       -1.63865122983390        1.72432538822050
N            5.85537199918883       -1.19302196714960        2.26256555299381
C            6.26272138712862        0.06968644810158        2.70551314295362
C            7.59067838969144        0.43922609294504        2.52306452783526
C            8.05277096857252        1.68867470866554        2.86967727329449
C            7.22105183735305        2.64756516217250        3.44065595050393
C            5.86927679665898        2.28664136716729        3.71060663019556
C            4.99139621408008        3.19592684602546        4.35836331673693
C            3.70428565897062        2.81022578774405        4.66566550667452
C            3.25160443866557        1.53836090930355        4.35870622803345
C            4.07817446054078        0.64993751631274        3.72654258706356
C            5.38665004826994        0.99743326747409        3.36044663178701
C            5.44581648936560        4.53786308576047        4.71945458961839
O            4.69709278496678        5.32822678576857        5.27236937685611
C            6.82703995606355        4.90431986911025        4.39887742011709
C            7.27630880374380        6.18011783961916        4.71730344347325
C            8.56177527070635        6.56639028593822        4.43381375494940
C            9.42601056765301        5.67637516114052        3.82164780502422
C            9.00245354550597        4.41077509103414        3.49923116030316
C            7.69724699182490        3.98542889403119        3.77802130540117
N            3.71025904043542       -0.74559395015512        1.41178822970400
H           -0.29001727263199       -0.19542522684406       -0.18169458054558
H            0.07739530898087       -1.69528804928628        0.71604477372634
H            0.76390338873047       -1.43674877916211       -0.91499667476236
H            6.58947643957248       -1.89258664033526        2.17736771768133
H            8.26009670235663       -0.26556998902646        2.06145385830871
H            9.08571038465496        1.92025853237174        2.68596220487152
H            3.05961404018213        3.51630121464200        5.16106393182289
H            2.24562216445369        1.24976859287386        4.61659090685019
H            3.72327119017950       -0.33925061615404        3.50305948235702
H            6.59046748087319        6.86116001274042        5.19223021573754
H            8.89713691253825        7.55933691803192        4.68531602250976
H           10.43533346043373        5.98004888153679        3.59634147171130
H            9.69254851119114        3.74323021344937        3.01709548152291
