37
 energy: -7.818513948836 gnorm: 0.000584479921 xtb: 6.5.0 (97a52f5)
C            0.42599662945157        0.23738017310528        0.97495379269162
O            1.61550052554195        0.92466733495831        0.69642946021639
C            2.66919546464348        0.49578550069266        1.49842542662844
N            2.44277003886623       -0.45772079491665        2.39088931392509
C            3.49444756114001       -0.80719976971535        3.10526553764606
Cl           3.26213094223549       -2.07152503587772        4.30146608524643
N            4.70543267482229       -0.29663216889627        2.99904904357002
C            4.82117518577784        0.65294086456540        2.07987632941457
N            6.10047074916947        1.21652746896724        1.93842269646081
C            6.53924280751636        2.22143370335064        1.06885604705380
C            5.64722254222693        2.86753177685477        0.17753713823268
C            6.06269102999697        3.84437777860482       -0.66293062778980
C            7.42390175110485        4.25395615952412       -0.68138597256859
C            7.88390369746861        5.24984305788384       -1.53628112072315
C            9.22636885193115        5.63514026327714       -1.54585116932993
C            9.71120719010170        6.64638389247447       -2.41352133356235
C           11.02423263593950        7.00053162272427       -2.40326086094080
C           11.92774442521507        6.37091859136143       -1.53167859973798
C           11.50532634949737        5.39657491046684       -0.68295020519281
C           10.14409685447492        4.99510121580033       -0.65962322605322
C            9.68278293926456        3.99869454230462        0.19910627297983
C            8.34122385051203        3.61290451241838        0.20783566112563
C            7.86218718107426        2.60298458671594        1.07101310821082
N            3.83989307150809        1.08283622000075        1.30639149599993
H           -0.35570087397404        0.59305455607863        0.30133405252617
H            0.13388417677935        0.42627644665180        2.00930497224231
H            0.58244375500272       -0.83216361504523        0.82359054796754
H            6.79418360362695        0.81738584891995        2.56296676003550
H            4.61929717244090        2.56064299645932        0.18204208094223
H            5.36585841920096        4.32137467845792       -1.33009074856367
H            7.19333249782296        5.73134197030171       -2.20419297756396
H            9.02274726677689        7.13167474353732       -3.08330859763733
H           11.37850218227976        7.77097573009545       -3.06826150580987
H           12.96407601332706        6.66619199782618       -1.53863364608934
H           12.20106834020942        4.91647838730188       -0.01684838250932
H           10.37374648283321        3.51670182338248        0.86629812577835
H            8.54824601419866        2.12257802938497        1.74335502518454
