45
 energy: -9.563625027593 gnorm: 0.000600929471 xtb: 6.5.0 (97a52f5)
C            1.46030029601788        0.42370505151848       -0.09437813679720
O            2.65026392877572       -0.14095835882255        0.38342388894052
C            3.22448811223449       -1.00768367568264       -0.54053548290805
N            2.61201989336861       -1.18180389717873       -1.69839619016794
C            3.21700445755545       -2.00916926971308       -2.53099298851559
N            2.60717008567374       -2.27610028142180       -3.77370655134523
C            1.50770819216622       -1.66011295075832       -4.38273357757724
C            0.61303539887770       -2.44124710314952       -5.10546151494175
C           -0.53000859417178       -1.91059711575038       -5.66015427105691
C           -0.84514007207760       -0.55939804234187       -5.54490851967515
C            0.08046466834277        0.28933423907210       -4.87199044713640
C           -0.14768289692128        1.68801941395212       -4.78191267243979
C            0.78934620741771        2.50155983504703       -4.18120086577446
C            1.96362237058215        1.97565635329697       -3.66943398770563
C            2.19842014832361        0.62912467057915       -3.73569848195389
C            1.26490587378667       -0.24941724439803       -4.30437488412056
C           -1.36352543642897        2.27847134290668       -5.33992270994224
O           -1.57511498358899        3.47850963912473       -5.25810500827643
C           -2.31925560611213        1.38631198287004       -6.00061227765972
C           -3.48664457656611        1.92358784052992       -6.52961433105888
C           -4.41187494994387        1.12484502115927       -7.15266400613937
C           -4.18342919952555       -0.23562066693139       -7.25747813531006
C           -3.03577298794169       -0.78643321881803       -6.74276259776432
C           -2.07064816462881        0.00240537357218       -6.10363628311507
N            4.33347485030618       -2.66884364521835       -2.27651758753469
C            4.86505513231073       -2.42052652209377       -1.08948106969938
O            6.04967207310214       -3.08205303405051       -0.78290327537514
C            6.52539351983721       -2.75106355129596        0.49329776036324
N            4.35466253327134       -1.59833577473792       -0.18924320929995
H            1.06020998852733        1.10057097012264        0.66299019611052
H            0.74031101147414       -0.37122196743351       -0.29851692862108
H            1.66943977832190        0.97692611228848       -1.01135481478737
H            2.93071955128715       -3.14603784247750       -4.18967024804232
H            0.80738441922814       -3.49588322334244       -5.19277958413693
H           -1.19270844747266       -2.56918071969584       -6.19075344070057
H            0.59577246065215        3.55942299104973       -4.13045206808862
H            2.69385218467459        2.62931480320009       -3.22097494659076
H            3.11683008937109        0.22711105377826       -3.34814420278945
H           -3.65025501310788        2.98392995996738       -6.43789651386100
H           -5.31367848755328        1.55431596048487       -7.55747261151020
H           -4.91094008567813       -0.86442087487069       -7.74422094212312
H           -2.88884030277838       -1.84705348395800       -6.83164167878695
H            7.45380717723030       -3.29542349573862        0.67641368875110
H            5.77998447820820       -3.03237375919701        1.23957569262875
H            6.71204092358418       -1.67647289544465        0.54063581654035
