49
 energy: -10.493668641177 gnorm: 0.000273816840 xtb: 6.5.0 (97a52f5)
C            3.00935856221839       -0.92918093059467       -1.35192747105236
O            3.99886279393566       -0.31434720252901       -0.57125818434293
C            3.88799384625785       -0.63355392004149        0.78016808064026
N            2.92966939014088       -1.46096648306458        1.16159863497507
C            2.88058040357308       -1.69328266476164        2.46172592220564
N            1.88177574453381       -2.54310622746410        2.97426912434471
C            0.95136518873196       -3.33946714516453        2.31939354478965
C            0.99747955746286       -3.47667014417659        0.94165135225230
C            0.13631848344052       -4.30042613275895        0.25875839182020
C           -0.84351230887899       -5.04071036580520        0.91721288071079
C           -1.74733832812054       -5.92472635524574        0.19790486258314
C           -1.66531504959683       -6.10991612653931       -1.17778617728398
C           -2.53654301769726       -6.95137993599125       -1.85483806217392
C           -3.51190620151144       -7.62805768519266       -1.18013512989008
C           -3.64541047666371       -7.48568420013335        0.21464306148386
C           -4.64701668562745       -8.17558428774555        0.92463042502452
C           -4.76245917044357       -8.02817907948419        2.27671654635936
C           -3.89244408201861       -7.19953498420938        2.97227489554265
C           -2.88338611186853       -6.49435305833890        2.32907405132671
C           -1.95853248113717       -5.62561415847761        3.05084520355156
C           -2.03031822740734       -5.46647672910953        4.42808031049747
C           -1.15809740809830       -4.63393551443537        5.10660920192363
C           -0.19049908909894       -3.94294307361238        4.43084723425683
C           -0.05489356300594       -4.06316978334363        3.03960900639602
C           -0.95266465206640       -4.91306553075063        2.33322853847996
C           -2.75506156096129       -6.63163731286884        0.91735885071919
N            3.69963782177779       -1.17456795021398        3.36261833743503
C            4.63187577734775       -0.37322999171796        2.87121966830358
O            5.52499131231268        0.18323930424679        3.78315793607145
C            6.46805987659329        1.01323484697158        3.16023512551988
N            4.76758896221712       -0.06914120992867        1.59228614686177
H            3.08847143230198       -0.56291317008638       -2.37716466651710
H            2.02401472201651       -0.68231321381717       -0.95223036405680
H            3.15806830599921       -2.01012256321309       -1.33891264926815
H            1.90947692970583       -2.59821445930498        3.98722110208186
H            1.74390864229470       -2.92462180250921        0.40599540943333
H            0.23053058886886       -4.36567197791957       -0.80929631522093
H           -0.90939145702751       -5.59848649331029       -1.74407561354994
H           -2.44202864533312       -7.07078591113208       -2.92179513428331
H           -4.18754822561914       -8.27860715220686       -1.70804668498537
H           -5.32136083997078       -8.82003731380313        0.38766296171169
H           -5.53435021570853       -8.55908326414130        2.80950294596377
H           -4.01641614132009       -7.10993329998296        4.03544424289622
H           -2.77666037674391       -5.99340729303962        4.99277787727423
H           -1.24554153600064       -4.52681507122992        6.17572697386526
H            0.45939080942111       -3.28865929038251        4.98086602249452
H            7.12874887900129        1.43502809567286        3.91988750191707
H            5.95076982092403        1.81865430308452        2.63567363744842
H            7.05326800086791        0.42637390981778        2.44996044349354
