93
 energy: -18.119422820080 gnorm: 0.000523020312 xtb: 6.5.0 (97a52f5)
C            1.10394597524150       -0.15553288032351        0.04524858168445
C            2.29563938060084       -0.36544385054578        0.00875072991979
C            3.69156126682933       -0.59648419367300       -0.06154005948631
O            4.30611878126310       -0.19444184836431       -1.28944561177061
C            5.66641387976124       -0.41533542453816       -1.36694464984139
C            6.31718535265918       -0.02917339457059       -2.55284033325174
C            7.66123565413186       -0.20637689428847       -2.71571919298678
C            8.44456003223481       -0.78132912743242       -1.70257218591535
C            9.85568020203348       -0.94575784999066       -1.89997668771436
C           10.70505172705722       -1.45757653483422       -0.98002532759045
C           12.10271502914140       -1.62085212800838       -1.14968463243668
N           12.91548488174020       -2.12851501634021       -0.19313452910131
C           14.22812295855937       -2.18660235061607       -0.57816920992972
C           15.25416517436315       -2.68748100768843        0.26482165080964
C           16.66910792869310       -2.70345611327939       -0.15123821527819
C           17.37327427407055       -3.91250405479743       -0.29142356517873
C           18.68858834704800       -3.92654491071545       -0.65461699499702
C           19.39283018272816       -2.73121015727002       -0.90147589941743
N           20.73083382163955       -2.74386285252064       -1.25059676787188
C           21.50732263034563       -3.99072996568271       -1.39666139320028
C           21.99062338765125       -4.52111549676697       -0.06305702985368
C           21.50897495702177       -1.51047831446643       -1.48138243727923
C           21.31319388861649       -0.96604943898768       -2.88078112449000
C           18.68152664365824       -1.52200264033301       -0.76941511911304
C           17.36583830020632       -1.50918385768617       -0.40750599117758
C           14.84103133652495       -3.15883700858630        1.53949951775232
C           15.59065909374684       -3.63842765543214        2.66777029175895
C           17.06286668688779       -3.77682927484794        2.78597322718064
C           14.69215679468830       -3.94328858918832        3.66390891338216
C           13.37734806724993       -3.64508743545135        3.21200194244108
C           12.13468840169051       -3.76638123529050        3.90033364336009
C           12.03134488721033       -4.15625018411671        5.18526541120612
C           10.81850889555719       -4.30572937715132        5.97690862006987
C           10.96732750252438       -4.27705937890328        7.36956781544656
C            9.88862318826399       -4.41740576234804        8.21227749453158
C            8.63245226305862       -4.59997852470368        7.68850356218970
S            7.22573952943248       -4.78235364672040        8.78524131898465
O            7.53392494843878       -5.91948363507161        9.71017631421125
O            7.00386988828722       -3.44055984440065        9.41232798318386
O            6.01327213657365       -5.21371193524843        7.84471317178120
C            8.45878682460408       -4.64431190144259        6.32419234247082
C            9.52508039376228       -4.50336549361111        5.46885019793444
S            9.07325347582073       -4.61464021151306        3.73009297999352
O            7.70443967156169       -5.22376214241601        3.63146064392446
O            9.18940986535489       -3.22067674918836        3.19224791304956
O           10.09538340502496       -5.67006301695958        3.11371493888372
N           13.53005833076000       -3.17671425735770        1.95293409191310
B           12.36141555279283       -2.63073279625080        1.13772306369021
F           11.78329705913607       -1.57247880220911        1.81846369271243
F           11.45022561544549       -3.64420548671284        0.89384387874058
C           14.23923972328045       -1.69272639812185       -1.93135452073371
C           15.40582363708773       -1.57972763514511       -2.83994027024439
C           12.95091798738361       -1.33832105579478       -2.25718745645127
C            7.79664035170577       -1.17174646269897       -0.51806410960369
C            6.45165409405679       -0.99529827950260       -0.35341243179943
H            0.05383058936667        0.02629562347740        0.07391246579939
H            3.89239889173691       -1.66660871034679        0.07108538627998
H            4.19395622256155       -0.05465262879361        0.74913987167567
H            5.72373457579210        0.41401459478549       -3.33271963033838
H            8.13623854445583        0.09930593863678       -3.63202332101334
H           10.26108102914003       -0.63138859783569       -2.84476947991171
H           10.32175625961412       -1.77006634078525       -0.02684766089967
H           16.84854504897030       -4.83577535497619       -0.11689457144334
H           19.19529097199417       -4.86930042558393       -0.74806704406456
H           22.35256100811094       -3.79522155230544       -2.06485400530777
H           20.89243724958015       -4.72553680940517       -1.92504701663294
H           22.63447008299601       -3.79456288866632        0.43400345603451
H           22.55593143866998       -5.44879152333077       -0.17026164414348
H           21.15499347858791       -4.71661484862561        0.60944557778961
H           22.56590150303213       -1.72876794339154       -1.29583530004750
H           21.23408345622789       -0.77503070248072       -0.71922001870901
H           21.62603828695111       -1.69593734819081       -3.62831230037880
H           21.88428111881501       -0.05113051062713       -3.04921125137706
H           20.26347510148916       -0.74403113219226       -3.07433126929624
H           19.18239200468716       -0.58982490500333       -0.95523268351666
H           16.84406660514129       -0.57504927393912       -0.29214999401025
H           17.57521705824951       -2.95869365960039        2.27989937109332
H           17.40188701260744       -4.71707363002836        2.35136101067210
H           17.37183242331927       -3.76194272308612        3.83143371436619
H           14.95199770203352       -4.32749261291063        4.63495444915717
H           11.24913216513817       -3.51412629957025        3.34478632395749
H           12.95141882269755       -4.34755687545026        5.70927703556274
H           11.94983900565264       -4.13234542303013        7.78538896136925
H           10.01803172030546       -4.38828692060649        9.28186677131591
H            5.49305923573243       -5.91076866862588        8.26756464959663
H            7.47048655035383       -4.80618722186638        5.92205745053224
H            9.63777604105903       -6.25228861041082        2.49178190579866
H           15.08934444925371       -1.60158333598595       -3.88300035429869
H           15.94052852816178       -0.64482950555519       -2.67267501004539
H           16.10117852735900       -2.40540480549590       -2.68948144030334
H           12.63487152810351       -0.93602936518349       -3.20360285674901
H            8.36455340876836       -1.62104786657100        0.27677631701599
H            5.99101808780443       -1.30541265649553        0.56646394787459
