52
 energy: -10.005889835126 gnorm: 0.000677936054 xtb: 6.5.0 (97a52f5)
C            3.39174274953705        1.30137391343637        2.14298278607167
C            4.14671352644800        0.38384833148729        1.23501358867501
O            4.67882457404806       -0.59028551170372        1.73306155734844
C            4.25470787779192        0.67904685455652       -0.19209813598184
C            4.63262639711868       -0.32212800349839       -1.10468878069288
N            4.44863103844639       -1.66851980079563       -0.84176791368967
C            3.28856393548895       -2.25655614898160       -0.15594292679964
C            2.10828216698430       -2.44627450285249       -1.10957591486734
C            1.70533494946956       -1.17714795608785       -1.79451788475622
C            1.10382796880432       -0.15191396919556       -1.07999553419899
C            0.79967315096946        1.04639084074328       -1.68136354809890
C            1.08665238190520        1.25800050826619       -3.03060650205449
O            0.79932467318600        2.44902754975485       -3.67140741125431
C            1.68405737196543        0.22085147660025       -3.74676996353476
C            1.98891662451027       -0.97227049799272       -3.13713898294131
C            3.71489244323114       -3.55844057257014        0.50007424255593
O            3.34660048262752       -4.61669915825052        0.04036284273988
O            4.52774116148284       -3.40746375580225        1.57296264493170
C            5.06712988196246        0.07536863508634       -2.42178024373891
C            5.62375133115641       -0.82131953407313       -3.34371653185178
C            5.96904331819317       -0.42361814361102       -4.60451451897833
C            5.77537704612167        0.90168859828022       -5.02493548798904
N            6.11888626202941        1.30973745492389       -6.32436430334709
C            6.82804008983204        0.42129411286385       -7.24553385706958
C            5.78654300964607        2.64410747684514       -6.82374782389527
C            5.23421591170165        1.79609737434910       -4.11135397026114
C            4.88248736772337        1.41313090489461       -2.82190702382987
O            4.34928266888192        2.37183151357587       -1.97861318635444
C            4.06572765862943        2.04561950791919       -0.66761099248458
O            3.65657546501914        2.90576491732813        0.10310280599182
H            4.02625743424666        2.12754639788179        2.46034580567238
H            3.05628933329700        0.76564296266488        3.02948922273571
H            2.52074474389819        1.72032191166817        1.64049473483317
H            4.78015916800743       -2.35533843736338       -1.51166488976151
H            2.98686438929903       -1.55629567588698        0.63189713427284
H            1.25341021457766       -2.86415538214877       -0.56814467924051
H            2.38175277124496       -3.19884494469297       -1.85439718182543
H            0.88442215725194       -0.30071348699278       -0.03658366654139
H            0.34274888673715        1.83489723134293       -1.11129191740613
H            0.41472038050793        3.09070500326663       -3.04687019278385
H            1.90885037278474        0.38205639930729       -4.78590733107485
H            2.46724635411006       -1.75568937878199       -3.69948388589801
H            4.68091273097119       -2.44636828709881        1.71411531310284
H            5.80394171817719       -1.83997156577169       -3.05380078554959
H            6.38611013640264       -1.13840621614489       -5.29083922984580
H            7.70115474026863       -0.00357173141501       -6.75501771878514
H            7.16878862663285        0.96364066147885       -8.12431792085768
H            6.16846445981369       -0.38126409326989       -7.56795835877580
H            4.74264891604376        2.87029176586148       -6.61756540430403
H            5.93529967776331        2.70421262944561       -7.89946337577047
H            6.41912511232225        3.38766187194907       -6.34366317406437
H            5.08147419070939        2.82216994923187       -4.38492152777066
