43
 energy: -9.101263236758 gnorm: 0.000163326316 xtb: 6.5.0 (97a52f5)
C            2.25896217129237        1.03554285053920       -0.37506059835989
O            3.42615756757629        0.41956269310042        0.09831753275107
C            3.63649987460112       -0.83496395041126       -0.47064960538809
N            2.76832392074214       -1.28280334122409       -1.36120232931769
C            3.02970059041325       -2.48845832096042       -1.83408684185460
N            2.14585672990337       -3.07361607538174       -2.76222488444498
C            1.04098807749575       -2.53834400996624       -3.41619250083445
C            0.75384619299096       -1.17470403664144       -3.30726689201407
C           -0.28715006194121       -0.58979550910784       -3.97238488455904
C           -1.12734101489623       -1.35240318774533       -4.79467309662001
C           -2.21814506936400       -0.77286592694262       -5.50071288296608
C           -3.03033212262624       -1.52584000362793       -6.28142689910976
C           -2.82239733312157       -2.92881194693613       -6.42142758106723
C           -3.65174359271403       -3.73003076374812       -7.21166142550340
C           -3.42623740725035       -5.08595586931432       -7.32258883819307
C           -2.37646083111077       -5.68201439619052       -6.65703326575223
C           -1.51672178185720       -4.92534179259363       -5.85449396177319
C           -0.42695876233798       -5.50585957349409       -5.14704575190348
C            0.39034245965901       -4.75112194841456       -4.37184313139417
C            0.20157224544491       -3.34846692129440       -4.23015611440814
C           -0.88206941897549       -2.74273925920626       -4.91671611230407
C           -1.74051441043237       -3.53304009467956       -5.73372879263423
N            4.06614504292581       -3.23597807096271       -1.49157067468740
C            4.88009799033167       -2.68565919827875       -0.60499489646266
O            5.99169148186529       -3.43370195568446       -0.22411990484394
C            6.78472455533604       -2.76070329137542        0.71609234951133
N            4.70980359590773       -1.49278293763340       -0.06336400535954
H            2.10386228151992        1.96730224141188        0.17187911087748
H            1.40677703799408        0.37238118222181       -0.21516634664397
H            2.37060693083723        1.25184497702219       -1.43871848134929
H            2.41118066130823       -4.02374403137783       -3.00070618941509
H            1.38760305513371       -0.57876367651088       -2.68115902531051
H           -0.47201643504507        0.46559849741762       -3.87048759777742
H           -2.39087534193802        0.28489945198744       -5.40386335231628
H           -3.85098211769966       -1.07021214745466       -6.80776126458119
H           -4.47492457273392       -3.27473828458076       -7.73445933600895
H           -4.07870499089649       -5.68629383888869       -7.93505931321082
H           -2.21024664668675       -6.74140639223344       -6.74811035435109
H           -0.26352726678225       -6.56615510294628       -5.23366978259158
H            1.18898142119179       -5.23283230382579       -3.83965103795833
H            7.64153468938487       -3.38659205414807        0.97230091965299
H            6.19346414380636       -2.56268102164770        1.61196951971525
H            7.13282646074761       -1.81911065829029        0.28751852076751
