35
 energy: -7.133856062317 gnorm: 0.000953135552 xtb: 6.5.0 (97a52f5)
C            1.12668936430217       -0.26857384244065        0.35810357170181
S            2.88721065050147       -0.03860866374765       -0.05298632468004
O            3.55573900652252       -1.38254377170253        0.10081008270518
O            2.93703391484498        0.73560072704680       -1.34694620293166
C            3.34843448841613        1.02638611986990        1.30959549253374
C            3.83835902925805        0.48002733635407        2.47287042362587
C            4.18841758509866        1.30060464108299        3.52228122991296
C            4.04895911643398        2.68179850260102        3.42641018645780
C            4.44761227285584        3.51171860087890        4.57215956976553
C            4.05760978037686        4.81176600307364        4.69247036968600
C            4.46788077951062        5.59183058049976        5.79938084484200
C            4.09393804143056        6.93684139989187        5.95740994667730
C            4.51983949215503        7.65619666496451        7.03831224387182
C            5.34135908995596        7.06955299582987        8.01606595449115
N            5.77970363426833        7.79809656831783        9.10798457418068
C            5.70749718510836        5.73732975527365        7.86058113936366
C            5.28278448543702        4.99683363892940        6.77122864931718
C            5.67455008257385        3.59116588818233        6.62780814184876
O            6.37569479801340        3.08847417868772        7.49298000131474
O            5.23988625889446        2.88685968793783        5.52642586450551
C            3.56188519750678        3.21689730291941        2.23390438759886
C            3.21529666722008        2.39020470054462        1.18755661031619
H            0.70589493639938       -1.04998743704647       -0.26707423150479
H            0.57802971080088        0.65172424357978        0.18175411791844
H            1.01346609107976       -0.55612252478001        1.39900789307573
H            3.95150450192703       -0.58915141438637        2.54747509744791
H            4.58120470478445        0.88653729135414        4.43558657115117
H            3.42001460971680        5.25943491634624        3.95424028518466
H            3.46762249153925        7.39683586071728        5.21253665582644
H            4.23052071615477        8.68554166150397        7.15426295642583
H            5.65404675190000        8.79189935882257        9.17554676236186
H            6.48407357170324        7.45207127081293        9.73418159841143
H            6.33088339757660        5.26379252611695        8.59625568989338
H            3.47761605634201        4.28263175499845        2.11768406866160
H            2.84959153938856        2.80091347696508        0.26060577804052
