108
 energy: -21.086439188183 gnorm: 0.000696667301 xtb: 6.5.0 (97a52f5)
C            0.54622624884244        0.35603607998947        1.60627819980200
S            1.93578005630190        0.15345526658140        0.45954625427551
C            1.56142647496279        0.06764200764407       -1.31248231071565
C            3.29325346258645        1.30833656866062        0.82616412425210
C            3.17657159797462        2.65313349995408        0.64421810207788
C            2.00642875250606        3.24964754255116        0.14752174722593
C            1.80239594778860        4.59375260217787       -0.07932847046277
C            0.56602226809548        5.02031136352697       -0.65196814754491
C           -0.51026496502428        4.02095077714542       -0.87560992235795
C           -0.91170440217955        3.66571165936460       -2.17193449073457
C           -1.87938846786985        2.71568192997137       -2.37206572022813
C           -2.49712817267634        2.08664938070910       -1.29511683960194
C           -3.52873161739444        1.04658437119397       -1.54654638303668
O           -3.43623733115917        0.35270113948466       -2.54751552314973
O           -4.54952816176467        0.92629259222453       -0.64229097214853
C           -2.10191734133080        2.42790361002354       -0.00384871140291
C           -1.13144722985079        3.37414778737165        0.20337640517537
C            0.35787752940267        6.37802617290960       -1.03744419509855
C           -0.87093015212411        6.75734978165960       -1.53398137534196
C           -1.24051381317619        8.03737533283042       -1.98388282432232
C           -2.50878191475420        8.34191164213524       -2.38209987800520
N           -3.02263920454565        9.55127819946055       -2.84451131797763
C           -2.35183799359618       10.85489497065964       -3.07730292210894
C           -0.85473019630279       10.95394833471958       -2.83304733737499
C           -0.29176059118664       12.33661556568372       -3.16754892532507
C            1.19871415884976       12.44479531940070       -2.92488783300599
S            1.81513439232708       14.12636039880048       -3.33861425973808
O            1.44753005226539       14.29168637244436       -4.77345430999681
O            1.08587892815401       15.00824461636388       -2.38404588609374
O            3.27502899804080       14.00046684806750       -3.08022229952944
C           -4.42203625827448        9.46882114979685       -3.11856326527441
C           -5.22817015326318       10.51496586909912       -3.57252495077920
C           -6.57275592973020       10.30061159246264       -3.79159166549489
C           -7.13506896730574        9.05597742321883       -3.56491657113285
C           -6.34722149972240        8.01194099265305       -3.11500334655683
C           -5.00740458253321        8.22684875696377       -2.89780346053107
S           -3.78534797971556        7.04323579046996       -2.32226328325758
C           -3.55577377570655        5.76581872968356       -3.58905952153423
C           -4.16360355932612        6.51263945995690       -0.62942948547235
C            1.46659141365461        7.37911072143405       -0.86946077410605
C            2.39621535256708        7.03703754365263        0.30412453443976
C            2.89095881303968        5.58462066702786        0.23137790601907
N            4.41307480106329        0.64828534121561        1.29965191540992
C            5.64262729291974        1.32940296424395        1.73173398734747
C            5.54454302643331        1.81003471067659        3.17055388828127
C            6.78578381669646        2.57147273760890        3.63541790711548
C            6.67708479046874        3.07516668763141        5.05884631389627
S            8.19172567561686        3.99108104743902        5.55361653752535
O            9.26721106553898        2.96370078290522        5.46226112873404
O            8.27511777556631        5.09751002814860        4.55872851343676
O            7.86181127243447        4.42471618030408        6.93842659300627
C            4.22508099588944       -0.75866760455366        1.41740704680019
C            5.15768950461235       -1.67959395758673        1.89453121541904
C            4.83059952328294       -3.01838786861036        1.94293663025423
C            3.58515893846686       -3.45639720219617        1.52450157687001
C            2.65070909176433       -2.55000010552354        1.05589660050506
C            2.97464218951534       -1.21544676621297        1.00905883978298
H           -0.39445402242361        0.28947513122207        1.06689408729145
H            0.60416668692058        1.32301483786842        2.09821919775518
H            0.57220031468810       -0.42278532078649        2.36333737005927
H            0.57601866053224        0.48210583701436       -1.50782894953835
H            1.58015340090297       -0.96568303014576       -1.64751769040177
H            2.29868784117446        0.63271450283348       -1.87619272451193
H            4.01574807608771        3.27923510010241        0.88090798148574
H            1.20404273156713        2.58031883857024       -0.10202471013199
H           -0.43180632789622        4.13808860197286       -3.01151476717181
H           -2.17127300704584        2.43553429463801       -3.36962132080670
H           -4.49320822171264        1.61446217340895        0.05078510452371
H           -2.54299910420617        1.92139728077315        0.83648859138868
H           -0.83121989894576        3.63419101969345        1.20372804923288
H           -1.63358918099965        6.00214526600594       -1.57395253221154
H           -0.48066359092113        8.78869400980027       -2.00956607398173
H           -2.86554759498735       11.59615889844365       -2.45758408111583
H           -2.55908252827713       11.13627448209627       -4.11437675268126
H           -0.33287040752728       10.20153233605759       -3.43507691399750
H           -0.63669930675664       10.72949262497106       -1.78304998563784
H           -0.81617489868073       13.10099356327111       -2.57984963669833
H           -0.51208118849957       12.58231626973714       -4.21429672131235
H            1.74821950676485       11.72191928828240       -3.52761561060502
H            1.44200030768928       12.24037004318433       -1.88240202629698
H           -4.80021609869486       11.48518562862382       -3.74847407687466
H           -7.19216162738190       11.10948108858199       -4.14315666868753
H           -8.18678373921527        8.89959391573167       -3.73934629124511
H           -6.76698149293194        7.03739131647757       -2.93397392537656
H           -4.27971827862696        5.89919770048498       -4.38815456900169
H           -3.69292041238110        4.78021728387946       -3.15318055882924
H           -2.55596828483003        5.83088739728347       -4.00943113085328
H           -3.71337566354060        7.19796065806388        0.08351797656557
H           -3.77272837624295        5.51441184246443       -0.45257448200847
H           -5.23880500257202        6.50099585547563       -0.47411131970209
H            1.04492164089152        8.38008893971854       -0.72231638222031
H            2.04206924426006        7.42857949488580       -1.80126782074778
H            1.85797255849737        7.19041741499361        1.24788935082173
H            3.24722714350581        7.73204367939427        0.33521087345717
H            3.36552141024663        5.30939985763272        1.18139932487527
H            3.67359230716012        5.49632705206768       -0.53134514582807
H            5.83660789649298        2.16642931953944        1.05573999071321
H            6.49151932919537        0.65334985245260        1.60372021867832
H            5.36292321912112        0.95318254957287        3.82940913651651
H            4.65787869927672        2.44464106573450        3.28159791911234
H            6.97229203578271        3.41698177121611        2.96097151029742
H            7.67052364973220        1.92944423340834        3.53813913921824
H            6.53342325773655        2.25085602924601        5.75710153586054
H            5.82350716411959        3.74284814648673        5.17434108952328
H            6.12278964451275       -1.34400520589154        2.22765491656817
H            5.55084743914276       -3.73098883434836        2.31032859728390
H            3.34094407142407       -4.50504772820877        1.56645418956391
H            1.67624007060241       -2.87333377957082        0.73261792940790
