50
 energy: -9.147174251241 gnorm: 0.000672792878 xtb: 6.5.0 (97a52f5)
C            1.14314967515321       -0.49247770915045        0.60019744154505
S            2.19950559978890       -1.40901124511024       -0.47493194128000
C            3.40770349992684       -1.89377376757936        0.72238412200827
C            4.50826277708627       -1.13829578418185        1.13689030500524
C            4.86503149362683        0.20822266997638        0.63075906279116
C            5.19520604487136       -1.89134384156833        2.12569659893925
C            6.35664047956094       -1.60040178687128        2.86965184977976
C            7.08682044072502       -0.31940012229449        2.71079927393608
C            6.62353424712874        0.85259866807836        3.31457864558962
C            7.30324875115004        2.03858551615417        3.16259450133169
C            8.46576262264423        2.10160980021207        2.40527380260888
C            9.20954706753067        3.38115695870095        2.24099034603625
C            8.93287075582228        0.93959328170160        1.80713205710339
C            8.25911453453761       -0.25034786257495        1.95343730695477
C            6.79246396416978       -2.59750145885238        3.77356065866003
C            7.88037415190343       -2.62369837364319        4.66265691351712
C            8.90662264357575       -1.58165121329782        4.88492657340498
C            7.84346161508607       -3.87567913270790        5.31528857064926
Cl           8.95571394527626       -4.41136571296173        6.48763083740716
C            6.71989744815163       -4.61828647982027        4.83556697929233
C            6.27843704489749       -5.95915109337271        5.25223090761700
N            6.12941457659498       -3.83687061708618        3.94325650571819
B            4.85825033546909       -4.23289182284240        3.18476797439457
F            3.83008650625183       -4.44071656866791        4.09439918609212
F            5.11145338737319       -5.37313167453732        2.43409946615871
N            4.47482425908751       -3.08413956155437        2.24393163080099
C            3.41645127205059       -3.12443570936313        1.43498505479563
C            2.44839565759473       -4.23041981710366        1.32758686959769
H            0.28765708778564       -0.11375205811142        0.04666241879141
H            1.68103278237635        0.34803725787752        1.03145323209254
H            0.78456953665705       -1.12792130517206        1.40606805028383
H            4.28991275129416        0.45437037962043       -0.26196437635510
H            5.92155653195601        0.25905029276721        0.36770157236240
H            4.66292337754202        0.97198555837385        1.38153644908253
H            5.72505128293857        0.81166119755405        3.90562872203272
H            6.93472049918391        2.93312839086598        3.63429106172774
H            8.67332241004450        4.21456272664966        2.69563482458971
H            9.35249091371189        3.61389330126988        1.18520933560513
H           10.19231527336196        3.32052252760159        2.70962098229810
H            9.83572648067320        0.97965506577237        1.22228964305904
H            8.62567432064357       -1.14545959339232        1.48156682854986
H            8.45104671355013       -0.59556873399155        4.97651090049775
H            9.61769121308169       -1.55435006428627        4.05911324594047
H            9.46409815985849       -1.77807196628273        5.80117878133089
H            7.01828328096677       -6.43244193888937        5.89820886528632
H            6.12369615916941       -6.59660305507656        4.38132879462973
H            5.33523010501565       -5.89911141349776        5.79562993950725
H            2.76093011894328       -5.06895495027305        1.95041141843428
H            2.37134511582116       -4.58069937318006        0.29820492270087
H            1.45870108838707       -3.91388778587895        1.65676288709620
