69
 energy: -13.294588989065 gnorm: 0.000851485583 xtb: 6.5.0 (97a52f5)
C            1.76941578860403       -0.03377102545061       -2.76942576660047
S            3.22975890456978        0.22968107369091       -1.79625208902433
C            3.39520542622856       -1.27155559735175       -0.93893128983715
C            2.31392340790446       -1.97701997729011       -0.34247720582169
C            0.98362108880835       -1.65060899646651       -0.19986556203865
C            0.33373142518043       -2.70331476189843        0.51369008321305
C           -1.04412643778444       -2.72174689840039        0.84417465151706
C           -1.99107260700140       -1.72514598951969        0.47099499828445
C           -3.22602211986206       -2.10249691821134        0.96060136860779
N           -3.01392368378996       -3.32501815740364        1.64248229405787
C           -1.75518939805480       -3.71492402485222        1.59038840708439
B           -4.13611435501239       -4.08260092905689        2.36698110276968
F           -3.83092550341077       -4.16070587417144        3.71795900325099
F           -4.27257622142456       -5.34043746820423        1.79825661437730
N           -5.45096062676362       -3.30669254706933        2.19210063324061
C           -6.62750798925183       -3.69762103687441        2.67192840286902
C           -7.57512564682698       -2.73090724425433        2.27094643390301
C           -6.93209061770097       -1.75833955455628        1.54109850071182
C           -5.55511300180005       -2.10381772795228        1.47735245785218
C           -4.48831963923228       -1.46683175161031        0.84781804514124
C           -4.65790094774163       -0.20616335868031        0.08519062032941
C           -4.85375666728841        1.01465036038893        0.75894340874680
C           -4.90265791354130        1.06854579385335        2.24671754562918
C           -5.01677119127812        2.17500265003316        0.02597358205271
C           -4.97589260807541        2.17348904775561       -1.35920728596817
C           -5.12035016701369        3.43817690660112       -2.13222283172222
C           -4.76125535587992        0.97157571209095       -2.01343523005200
C           -4.61417695656928       -0.21608942471234       -1.32234761083654
C           -4.38713876422835       -1.48218654462662       -2.07379023460415
C            1.33357726118534       -3.68801212139693        0.81537483741952
C            1.19784803507521       -4.96194766782698        1.54238895943314
N            2.46971511812673       -3.22474137203359        0.30752478499309
B            3.81893838916090       -3.94189775963640        0.44945800469453
F            4.09742217425740       -4.12603750126194        1.79695531207024
F            3.76493580868748       -5.15369216930197       -0.22527653011421
N            4.91421905657140       -3.06597808933249       -0.17345248067137
C            6.21870461889121       -3.38575736431842       -0.19603460743021
C            6.81891911497908       -4.60757170610088        0.36990051798373
C            6.87128969469947       -2.33586245627490       -0.86868942930311
C            5.92992940039953       -1.39454177393311       -1.24327362890347
C            4.66526135837811       -1.84572894829458       -0.80164010929636
H            1.90921479517475        0.39608570265154       -3.75834787675359
H            0.91179275945814        0.44826104506639       -2.30744455260884
H            1.56744914826184       -1.09612910237672       -2.88269719398350
H            0.51903636533165       -0.73684183277956       -0.51954873377040
H           -1.79068327301782       -0.83527475089312       -0.09782478989497
H           -1.37686258541024       -4.61464615533006        2.04040087939933
H           -6.79387968240292       -4.59256644022736        3.24872758776101
H           -8.62947028355873       -2.75640018451558        2.49525970136867
H           -7.38313410031199       -0.89179398351788        1.08833629513549
H           -4.32416498943074        0.25809367985674        2.69055871192288
H           -5.92940624873537        0.98497290484556        2.60350412710799
H           -4.49198183109633        2.00757551745622        2.61868979480001
H           -5.17277593018897        3.10415362734732        0.54441807074679
H           -5.58287565885997        4.22015328878239       -1.52929119064758
H           -5.74416059708077        3.28740256344445       -3.01385571387213
H           -4.14719039790177        3.80079433113049       -2.46467911940158
H           -4.71087418427031        0.96333785974483       -3.08770365723913
H           -4.92041602206965       -1.47469628981857       -3.02476229414600
H           -4.73682158246391       -2.34608184524053       -1.50817393810049
H           -3.32647528375920       -1.62297176412612       -2.28313769028847
H            0.46831243070545       -5.61338356482183        1.06133374342600
H            2.15281760277009       -5.48807379662125        1.55775149062063
H            0.89422447878565       -4.79311330214415        2.57550784777820
H            6.05063459771081       -5.22263019507615        0.83929081603370
H            7.56478801681962       -4.36106873162863        1.12557082474998
H            7.29995853854308       -5.20084257770829       -0.40782022125336
H            7.93015046885819       -2.28465847991685       -1.06083441501326
H            6.11616579595101       -0.47774432963361       -1.77618718193198
