47
 energy: -9.274898437171 gnorm: 0.000564641021 xtb: 6.5.0 (97a52f5)
C            0.64701203081405        0.13249231959685       -0.84045059864756
S            2.18086780790177       -0.22419375574899       -0.04402450741704
C            3.04297051412510       -0.89677387238997       -1.43534544504237
C            3.03750997110493       -2.27219111731355       -1.62226414560129
C            3.69563889338630       -2.84491237053253       -2.68815695568217
C            3.65577753847695       -4.29825257349441       -2.87820302485619
C            2.53977759182252       -5.00515166372308       -2.54810295472549
C            2.46493493436439       -6.39622530961737       -2.74072213811514
C            1.31687461947908       -7.13452076698336       -2.41766296266522
C            1.25409197394303       -8.48786797715108       -2.61659264443136
C            2.37679750965847       -9.16976872458433       -3.15462609239843
C            3.52403051607355       -8.44426408785443       -3.49671483852101
C            3.57905341419605       -7.05942206446720       -3.29241292825775
O            4.73302390796756       -6.37621469616871       -3.63543449835680
C            4.81413524113698       -5.01352615050949       -3.42653265504409
O            5.84347597387235       -4.40311116140767       -3.66975420079678
C            4.71780278197079       -9.12845913739604       -4.08137247906311
C            4.82296741519014      -10.59458844630090       -3.64003740318314
C            3.49528447577130      -11.32101312590208       -3.85394722045567
N            2.34312635305951      -10.55609013265262       -3.32849536890404
C            1.16657756441266      -11.36400843486619       -2.94717210054567
C           -0.13044801160667      -10.56118623656797       -3.02949264440025
C           -0.00076606539152       -9.23457442147980       -2.26666322387017
O            4.37660270028077       -2.07166374654038       -3.59540744174591
C            4.39931132762296       -0.69918069060694       -3.44768003688151
O            4.98850060573439        0.02051969769828       -4.25054593888486
C            3.71044258078525       -0.09194597206338       -2.32759556297144
C            3.73538984332283        1.29211254168807       -2.17916977241023
N            3.74928946929183        2.44636451042261       -2.04524726301100
H           -0.03071152298579        0.61034387773460       -0.13732436656325
H            0.18809679710166       -0.78415062692235       -1.20270923190868
H            0.80867623100309        0.80173924662639       -1.68164911531806
H            2.52864014467611       -2.89063665543699       -0.90494368132003
H            1.67728902296752       -4.49209202381665       -2.16383300831986
H            0.46755499386611       -6.62134791404494       -2.00355607973268
H            5.61982931306261       -8.56856503173103       -3.80207249346343
H            4.65602448769143       -9.06914127486872       -5.17421175200824
H            5.09330200868176      -10.63647491269458       -2.57796496727548
H            5.63460603726411      -11.10451282806773       -4.17708759402707
H            3.50591715975548      -12.30466397511584       -3.37224082227180
H            3.32026292130974      -11.49414118982121       -4.92013727632922
H            1.32873727780056      -11.72565206949795       -1.92711115172745
H            1.12471687847940      -12.24751672564167       -3.59334998636527
H           -0.97530408122104      -11.14973339187459       -2.64583334256404
H           -0.36181549948796      -10.35523573514544       -4.08162794015332
H           -0.00813312691884       -9.42354058168283       -1.18692961418217
H           -0.86935252180984       -8.59414062109364       -2.46515052958542
