31
 energy: -6.283607131383 gnorm: 0.000341228964 xtb: 6.5.0 (97a52f5)
C            1.63469582203281        0.33813957275155       -0.65804604082546
S            3.34165733965299       -0.07853063506979       -0.49377331536972
C            3.84656818202329        0.27866642256132       -2.15634678679234
C            3.45264244930503       -0.53967571817496       -3.20430955864466
C            3.84438104265694       -0.25784199285220       -4.49319554872799
C            4.64598671917160        0.84936216323446       -4.76934162805052
C            5.06232517573712        1.12939833982193       -6.13039617671477
N            4.68871542567248        0.40921109801744       -7.15844050620198
C            5.23201076199393        0.88453472276237       -8.32096350846409
S            5.11874412924028        0.35681408181960      -10.00678492020629
C            6.18282479623968        1.64880858744874      -10.54382075748617
C            6.62170472339068        1.93454404307956      -11.82860492735701
C            7.46362869561812        3.00339758856962      -12.03089005196403
C            7.87588814969250        3.79678232870671      -10.96192012729882
C            7.44945013648401        3.52724108599645       -9.68509742330538
C            6.59279038845273        2.44228617869272       -9.46624385974446
C            6.04103340951169        1.99133234948068       -8.20968503334979
S            6.12789873853601        2.47941538839909       -6.54219880210185
C            5.03739675164768        1.66595647675628       -3.70761231459118
C            4.64236630124071        1.38332239165658       -2.41983110844773
H            1.13368857636277        0.23669021158850        0.30176563462947
H            1.15090698519859       -0.32145970511895       -1.37436607773513
H            1.52975267385672        1.36491989877494       -1.00047544280000
H            2.84069028271295       -1.40075514917491       -2.99542674629186
H            3.53919009073664       -0.89170277734577       -5.30696730268531
H            6.29867028627606        1.31638237225909      -12.64822357357383
H            7.80909666757190        3.22988551797859      -13.02612065435459
H            8.53651576452048        4.62924984436755      -11.14000467476824
H            7.76197050244149        4.13194050512506       -8.85216811754122
H            5.65612009158817        2.52231660550322       -3.90973834610471
H            4.94717894043536        2.01455820238454       -1.60216230312143
