28
 energy: -5.571928230398 gnorm: 0.000734285966 xtb: 6.5.0 (97a52f5)
C            1.33563126197150       -0.04832395350706       -0.11482863379904
S            3.05204089223068        0.14050814647221        0.25170815170710
C            3.39847225693498        1.47053204410641       -0.86922334602532
C            4.03886003096229        1.22184551087384       -2.07287334793646
C            4.30511535135661        2.25125967176575       -2.94683122040336
C            3.94139002103054        3.56574508394964       -2.64268791569318
C            4.23843381109978        4.62833823288241       -3.58895800893244
C            4.05129873793139        5.93919544896553       -3.36402931611183
C            4.34217586159716        7.01308469910427       -4.29507928025507
C            4.76404981825775        6.76644613418984       -5.59329584822168
C            5.01780645133090        7.83611329728114       -6.40155279540661
N            4.87981620347914        9.08370100355884       -6.00106063506317
C            4.47236396679243        9.20002144211598       -4.75533048553215
N            4.19007270501191        8.26934583307317       -3.86906040683306
C            3.29492396462266        3.80201126760291       -1.42627155496225
C            3.03034686156089        2.76930362141893       -0.55519431999623
H            0.91274271503236       -0.84923477594550        0.48653287972179
H            1.20074984324831       -0.29245150992626       -1.16570778806833
H            0.79893456053302        0.87162658431824        0.10289283596575
H            4.32370936005229        0.21147367139786       -2.31352886241554
H            4.80394305414095        2.04844899310967       -3.87902279798980
H            4.65311704554475        4.32098897234154       -4.53047976062919
H            3.67027642578908        6.25169819719955       -2.41092684299724
H            4.88037905130379        5.76288449856770       -5.96005814025862
H            5.34642898591646        7.67854561499817       -7.41871203618893
H            4.35207031285961       10.21681677052196       -4.40569017546099
H            2.99093808998164        4.79976013059371       -1.16648873319008
H            2.53379235942936        2.95856536896483        0.38157838497771
