34
 energy: -6.950995103603 gnorm: 0.000480795244 xtb: 6.5.0 (97a52f5)
C            1.01936942335325        0.10496164740618        0.72434913592295
S            2.73878544852923        0.06357968885599        0.32491016903999
C            3.20331860924432        1.60987267992477        1.05907212661968
C            3.94136116923236        1.62978045476336        2.23215494883948
C            4.29897972860789        2.82600737691966        2.81110710989999
C            3.92688161221328        4.04362392522390        2.23525866471683
C            4.31769580528212        5.28817427553290        2.87625454248949
C            3.87335211461655        6.50731741798786        2.52829295588702
C            4.24060279862874        7.76626724920573        3.15011438542240
C            5.16939145953477        7.81016388848523        4.21118708760286
N            5.55219205230856        8.88080512253419        4.83165545827993
C            4.97299803385643       10.01617946335127        4.37221630884517
C            5.29790125631833       11.25083199442463        4.96882553307943
C            4.73824644940224       12.41665647827444        4.53430984016015
C            3.82606825770387       12.40553280476268        3.47969483332690
C            3.48788977042412       11.22916400755015        2.87902422555411
C            4.04337759954733       10.00335447601295        3.30215769010025
N            3.67189636331544        8.86109523831076        2.68324535978051
C            3.18890698554404        4.00949195590095        1.04887274490137
C            2.83501571702593        2.81059594676119        0.47220081360655
H            0.53975934099190       -0.81477583457720        0.39791892340514
H            0.53556127596305        0.94335532629543        0.22909741472777
H            0.88528105511954        0.20727723550991        1.79860603365286
H            4.22799744040165        0.69518796615272        2.68421492964156
H            4.86986513936650        2.83149156599222        3.72369022392414
H            5.00391499555254        5.20023430406904        3.69760603894058
H            3.16396270745863        6.58687069668148        1.72646183189339
H            5.61314001753521        6.88949270204659        4.54923601441710
H            6.00263827976485       11.25345444100406        5.78155523385289
H            5.00017566171215       13.34976656716889        5.00542956693426
H            3.38853038406692       13.33023587534104        3.14089895213935
H            2.78423498260525       11.21475784752773        2.06542236142879
H            2.90450536468021        4.92862025163809        0.56931693522414
H            2.27198270009065        2.79162496297758       -0.44564839425649
