35
 energy: -7.577553079484 gnorm: 0.000556919576 xtb: 6.5.0 (97a52f5)
C            1.27987521338769       -0.14355950607207       -0.10369493467948
S            3.02547565915973       -0.06462919449104        0.15348874697792
C            3.40801511736139        1.29520523617363       -0.91643364567289
C            4.40222534662011        1.15208680449939       -1.88997766430750
C            4.76060422885192        2.21271583550588       -2.66829182642908
C            4.11620527112928        3.45947001674787       -2.53042199179159
C            4.58646705070532        4.59761458142639       -3.22837899908119
C            4.05125823414437        5.83325947312644       -3.02284172235140
C            4.60294055927704        6.93786077496946       -3.68818919321292
N            5.05693099436516        7.85672035024549       -4.23469411166827
C            2.92119302885178        5.98406177944214       -2.14809949234547
C            2.39215771451718        7.27823597718266       -1.89663465638456
C            1.29824940838196        7.45693239556517       -1.12532362586632
C            0.58558009297940        6.34170518856713       -0.61102702764872
C           -0.62172929327612        6.52188170981879        0.09163746848131
C           -1.37683854321916        5.45038914432951        0.46896625782546
C           -0.97051110000820        4.16133373794384        0.13239275930539
C            0.20674275444772        3.95816219794724       -0.52998786873835
C            1.05819492051920        5.03163876348481       -0.86844122880517
C            2.33258414291355        4.85846598149502       -1.54167019229363
C            3.03252047102224        3.59028085367486       -1.62674178815714
C            2.75225293613240        2.49364928888214       -0.78767368326033
H            0.89402585235714       -1.08792069564021        0.27212313394663
H            1.04789648202090       -0.06951000689179       -1.16341857800360
H            0.78123397748214        0.66511752155695        0.42462626116149
H            4.90368545207509        0.20395210664260       -1.98717808390578
H            5.55933443609894        2.11431572060790       -3.38299465970680
H            5.42241770889173        4.49280820146370       -3.89654345923100
H            2.89353854221956        8.12781808267210       -2.32519954863628
H            0.92117318027535        8.44706161767682       -0.93608514356242
H           -0.95399674624071        7.52215352292445        0.31004713228056
H           -2.30357595098353        5.60032764718162        0.99812190970964
H           -1.59955431436161        3.32270071690963        0.38294529975690
H            0.44118037477301        2.96784990202164       -0.87522963155544
H            2.07608679713079        2.61102427240911        0.03829378784622
