74
 energy: -16.198703403123 gnorm: 0.000494307419 xtb: 6.5.0 (97a52f5)
C            1.30532040844910       -0.06020334396220        0.80067913933006
S            2.83046713960557        0.49629771449389        0.12335418307601
C            3.32060281649549       -1.06658211535412       -0.62074195470552
N            3.75137595434596       -1.00628479572912       -1.87493351620999
C            4.09855495687025       -2.16942309271096       -2.43101416887829
C            4.57541879739788       -2.16904584043582       -3.82523492925202
C            5.05471560466282       -0.98657813968654       -4.38657454154504
C            5.50502251828295       -0.94791933146041       -5.68379469404302
C            5.48509909407096       -2.09206230546009       -6.47473830493365
N            5.94970600402524       -2.05295855556116       -7.83333490994291
C            6.81750956574757       -2.98364431411792       -8.44495780414367
C            7.45413548645849       -4.11514924344298       -7.93461485551296
C            8.26343686509524       -4.85093813706944       -8.76514358839884
C            8.45651761632211       -4.47879445412953      -10.09845302275772
C            7.84682891609125       -3.36104492296676      -10.61509799505650
C            7.02284842807381       -2.60235193570030       -9.78212298052283
C            6.25829638320418       -1.39890992085304      -10.00784931173741
C            6.07850275803935       -0.59917765784188      -11.13770423677605
C            5.25350608288175        0.49577699213673      -11.04566654817828
C            4.60021093537149        0.80448216486237       -9.84926159260774
C            4.76749421309634        0.02659850075912       -8.72989187942171
C            5.61010026447472       -1.08291080466681       -8.80138378710199
C            4.99865488380732       -3.27352283228456       -5.92395500948451
C            4.55239198056344       -3.31367786770763       -4.62489853433351
C            4.01748460976571       -3.34239507996465       -1.70876404412958
C            3.56712405752459       -3.30174681438774       -0.40538166950814
C            3.45650798728863       -4.52717894057033        0.40419266197234
C            2.67690398977460       -4.51245931542522        1.55962903616180
C            2.54759973759968       -5.63234111955788        2.34424980134512
C            3.20102344062649       -6.81267780721309        2.00588307178754
N            3.07638157009090       -7.98125645893907        2.83182040341882
C            2.79578995846441       -9.29122384202626        2.38653795645031
C            2.55329316576489       -9.79126184753740        1.10709289504147
C            2.28673145629226      -11.13039754463676        0.95921803251060
C            2.25205706250774      -11.98483094907416        2.06483934476583
C            2.47769517814974      -11.50787655998766        3.33355045225601
C            2.74836652641868      -10.14859685144320        3.49937051273288
C            3.01045230488062       -9.34676935133253        4.67085935664250
C            3.09581859775508       -9.66547297312984        6.02719284244582
C            3.38202519495023       -8.66350605494793        6.92287942177277
C            3.59038694797204       -7.35086344454541        6.49032171620836
C            3.50974554661881       -7.02274894030580        5.15919363557409
C            3.20861454659900       -8.02481735278110        4.23664480128949
C            3.98650923624662       -6.83318278675910        0.85759915266634
C            4.11401087764483       -5.71337749486484        0.07108785615519
N            3.20642326634609       -2.14166411392983        0.14806931999075
H            0.79947394205047        0.75799843261824        1.30798648844850
H            1.48489784108131       -0.85909317556714        1.51591806536245
H            0.66008855677418       -0.43698569158123        0.01062953278502
H            5.06971228542967       -0.09797238404382       -3.78032906128185
H            5.89301338457773       -0.03456234170965       -6.09931722906855
H            7.31315465744103       -4.39022048379116       -6.90495620864025
H            8.75878989820434       -5.72868203284819       -8.38373085258466
H            9.09474109711698       -5.07633953295716      -10.72837708540979
H            7.99336998505363       -3.06518299250793      -11.63879559213213
H            6.57992419214795       -0.84756841525518      -12.05634091760141
H            5.10426917492583        1.12384466503193      -11.90849143019922
H            3.95345696330732        1.66539404329588       -9.80625639811795
H            4.25496919748328        0.25159949591420       -7.81205831530001
H            4.95845757255703       -4.15458135541087       -6.54017455316189
H            4.15855933705020       -4.23242109048805       -4.22829263984569
H            4.30195424002530       -4.27429434351891       -2.15676079516913
H            2.17157163911644       -3.60122819492102        1.82751210227983
H            1.92784721942997       -5.61389011981363        3.22346565637582
H            2.56716408295616       -9.12755396119583        0.26144964266726
H            2.09896319003852      -11.52947056941538       -0.02402151818060
H            2.04186460263439      -13.03165406057695        1.91933164049358
H            2.44716334519763      -12.15742529139498        4.19039112298326
H            2.94001489119747      -10.67927347555693        6.35108062588476
H            3.45057261306247       -8.89245374092228        7.97362433162858
H            3.82033044753177       -6.58551027927065        7.21326970096145
H            3.68275882862072       -6.01733281895271        4.82010253629291
H            4.51082947800965       -7.73794617091362        0.60441945373693
H            4.74618440416843       -5.74734423207119       -0.79803001768796
