66
 energy: -13.552501220788 gnorm: 0.000822766486 xtb: 6.5.0 (97a52f5)
C            1.19224341504655        0.27461946332686       -0.37625327927092
S            2.93400828362131        0.07629318189592       -0.23516395827043
C            3.39027961602967        1.72212786987431       -0.79875975510806
N            2.79547113398764        2.74299953458135       -0.19168274485475
C            3.15249574536793        3.93377760488872       -0.63087456832397
C            4.06476353325218        4.11692247032066       -1.62683055577228
C            4.63639948163569        2.99223652574875       -2.20105806434197
C            5.61723534183791        3.08449531999465       -3.26266001863459
C            6.12487512466734        4.22125229474989       -3.77233460631000
C            7.11464541408847        4.29495676161847       -4.82924604069308
C            7.64484712218869        5.53758795421823       -5.19185228631196
C            8.59236680592736        5.64348104024945       -6.17866019744470
C            9.05113179426940        4.51327665140319       -6.85414582153595
N           10.05530136787568        4.62257596592419       -7.86853445586267
C           11.09619177373621        5.60532120258868       -7.73714134854223
C           11.55018908808671        6.31348121975940       -8.84683404427647
C           12.55213380223478        7.24908085622264       -8.72117892350234
C           13.11917249191792        7.49482778164510       -7.48599764166019
C           12.67926815705049        6.80125625089545       -6.37565579704419
C           11.67734713980152        5.86533436244162       -6.49864924016128
C           10.04817216178909        3.74563839082542       -9.00012207400002
C           11.24276963763709        3.30241035737827       -9.56621313227856
C           11.23876444294636        2.46258843845042      -10.65105975883646
C           10.03909763619814        2.03165956935017      -11.22677360100326
C           10.07637416650571        1.14061601654491      -12.36966868561568
C            9.00925651970041        0.75692906164330      -13.09353505146821
C            9.03684147111447       -0.14183400873931      -14.22925023069465
C           10.19197881272563       -0.80723732122535      -14.60957806042968
C           10.12679067064616       -1.63916178576954      -15.68697173594275
N            9.02171295114483       -1.83460799621988      -16.37887181243883
C            7.96449126865082       -1.15541654580262      -15.94809024797327
S            6.43820396819827       -1.38258489194299      -16.87129223897425
C            7.12546221712350       -1.16314193426322      -18.47680055363287
N            7.90276785033325       -0.32456573182967      -14.91315693546834
C            8.84240070658546        2.48027746865603      -10.65742937254902
C            8.84916948070942        3.31665246686397       -9.56883310118618
C            8.52022999431302        3.27291845996724       -6.50146430369638
C            7.57505328890960        3.16387120662129       -5.51209358576135
N            4.28657728870894        1.77345599425862       -1.77792910691956
H            0.68765209832194       -0.65098902676847       -0.10964356418579
H            0.92652675883126        0.53795491718297       -1.39710207120835
H            0.85232442408441        1.06359774290750        0.28966572384711
H            2.68762619813487        4.78893408905210       -0.16297259825326
H            4.32681335371245        5.10603433372070       -1.95560202340989
H            5.96345744984113        2.14420652707169       -3.64766966579661
H            5.79530819947806        5.15984693061298       -3.36692173156594
H            7.30242133637466        6.42069711477337       -4.68025622654393
H            8.98915716177512        6.60587365540526       -6.45042844793634
H           11.09900687262157        6.12295916754226       -9.80481951167267
H           12.89410798782519        7.79097480873152       -9.58764878256424
H           13.90408570670220        8.22681517900948       -7.38879806691381
H           13.12197604987830        6.99173144762572       -5.41173565221829
H           11.33713824937015        5.31477146216453       -5.63916507622982
H           12.17279045704487        3.62061331919871       -9.12898965995893
H           12.17045080426078        2.12698649494706      -11.07314764150093
H           11.04726546414900        0.77973265360130      -12.65459858121197
H            8.04287495291483        1.15032088459050      -12.84105955819406
H           11.11185180717667       -0.68289787325003      -14.06781791047078
H           11.00806504126698       -2.17442312910556      -16.00805669674556
H            6.35145536022155       -1.27089309613007      -19.23307832748790
H            7.89805901971125       -1.90746286007334      -18.65626352957045
H            7.56677905129362       -0.17255151036871      -18.56366041406666
H            7.90254905871016        2.16023363022531      -11.06967473051336
H            7.92290634399108        3.66461537025788       -9.14634179212396
H            8.87835536378857        2.39404931992405       -7.00824782103106
H            7.18331426195687        2.19401692002823       -5.26421870568735
