22
 energy: -4.186091655264 gnorm: 0.000492543347 xtb: 6.5.0 (97a52f5)
C            1.26450717588750       -0.08068932589964       -0.42181450648816
S            2.47457629546448       -0.59442178227172        0.75186110067660
C            2.91567981396141        0.93256386196620        1.47232563251236
S            2.29747526567041        2.50369691741132        1.10650277701202
C            3.29922244254926        3.30107128978953        2.29510967434502
C            3.25603393780316        4.72732979048063        2.51845643915497
C            4.14049502567159        5.33811720262590        3.55512618986385
O            2.52080929198378        5.43870301749213        1.86287178101956
C            4.08658963353212        2.36305111923362        2.93703093507722
N            4.99711575256532        2.63672950931601        3.92389333622979
N            5.65563600814919        1.68642252234374        4.42600866633414
N            5.50264621079181        0.39893324255774        4.05006542992817
C            4.62003294535285       -0.02268718579550        3.07287710902583
O            4.49916445658605       -1.19566178435534        2.75622652480312
C            3.85680750575791        1.03955967932966        2.46365950254668
H            0.87271212355688       -0.94667070069931       -0.95001030992831
H            1.70754234148136        0.59886972039975       -1.14589184881055
H            0.44212664412275        0.42245200151461        0.08103071257146
H            4.19295907999871        4.71493637474429        4.44707470680994
H            3.75323718319884        6.31416836524397        3.84478261720929
H            5.14964814432561        5.47415822160586        3.16830832438472
H            6.07020272159456       -0.29607205702608        4.51566520572350
