47
 energy: -8.550332842391 gnorm: 0.000562232275 xtb: 6.5.0 (97a52f5)
C            3.78480967552399       -2.79215410749772        0.93531127690122
C            3.34317365768408       -1.40842172773545        0.58013312128312
O            4.00890051702918       -0.47672435041489        0.99117942076728
C            2.12792728414437       -1.20258539692239       -0.21035596162692
C            1.92296475623385       -0.01243898907375       -0.93227591274349
N            2.95974207082418        0.78979308290184       -1.36504633999812
C            4.32900704378381        0.39800631589150       -1.72199478527198
C            5.26016264283310        1.54444571019777       -1.35906435423521
O            5.70345069705746        2.26072546486393       -2.22927934607518
O            5.49685588347971        1.68370484084542       -0.03216732500793
C            4.44345486190267       -0.00765113625014       -3.20527192958832
C            5.86536077019740       -0.45222505256833       -3.54758217135843
C            3.42640815942149       -1.08853628835240       -3.56575994922596
C            0.58180269380326        0.31159571186515       -1.35430208766534
C            0.23515178319950        1.55151920715719       -1.90888321789959
C           -1.03831164350242        1.81338611123476       -2.33010839722220
C           -2.05056037615807        0.84685248092303       -2.22218446001164
N           -3.35972471377573        1.11176535443256       -2.65665151267952
C           -3.69866736460910        2.34290177286887       -3.37089409112036
C           -4.45877562994670        0.18307866143299       -2.39170797563193
C           -1.71459384037272       -0.37952300718192       -1.66487020508271
C           -0.42546876001890       -0.66520757777893       -1.22839603557100
O           -0.18089486691069       -1.91682797150367       -0.69051725654399
C            1.05598496253456       -2.19212425101030       -0.14238008902031
O            1.25689601081120       -3.26533966742060        0.41423734350525
H            4.86367611877670       -2.82034979109809        1.08069914939823
H            3.52139869332379       -3.50120257274132        0.15110401562392
H            3.30522774693673       -3.11698743981500        1.85768441495019
H            2.75302691073317        1.64907979204269       -1.86381088630005
H            4.60041615046393       -0.47321384784794       -1.11731919827828
H            4.99545800423214        0.98663310570504        0.44654195895018
H            4.21369832474844        0.89759653696420       -3.79257848065444
H            6.14370538677132       -1.33296704296025       -2.96946022302174
H            6.58792753238689        0.33338456238825       -3.32315523050771
H            5.96165844200123       -0.70505127496094       -4.60378534173260
H            3.59370842516087       -1.98674099412077       -2.97210054460487
H            3.49777315780779       -1.36908724929837       -4.61704277207591
H            2.40565350265902       -0.75542027171996       -3.37843665800307
H            0.97365092991588        2.32832406135440       -1.98096741662552
H           -1.27469127425147        2.78042156021264       -2.73604529435079
H           -2.98144077823665        2.52157062914423       -4.16901850869292
H           -3.68998779516766        3.18571453588558       -2.68297429176705
H           -4.68654998879452        2.27106256352179       -3.82022979544985
H           -4.46767942635003       -0.09342501185092       -1.33958379864550
H           -4.34225317348839       -0.71199329664386       -2.99908166178112
H           -5.41813256879444        0.63847623496642       -2.62674328297781
H           -2.45529059601308       -1.14962998002285       -1.56858391233286
