39
 energy: -7.525717594145 gnorm: 0.000871233316 xtb: 6.5.0 (97a52f5)
C            1.11005622759281        0.22037324697151       -0.62221035583678
C            2.48436562699284        0.17119055609407        0.04379344803967
S            2.23854685993913       -0.12270892847388        1.81698601438538
C            2.64954490632365       -1.82063827983394        1.67790655194352
Cl           2.42210770919680       -2.96767936055227        2.92332342607553
C            3.18627591830748       -2.14193294341220        0.46195391962638
C            3.25030264283573       -1.05617420894381       -0.43514757020085
C            3.93581225363991       -1.01611795842422       -1.65645653824000
N            4.49451489001828       -2.02151449222439       -2.38863775870628
C            4.94269189746996       -1.47176215540237       -3.50925149209916
C            5.61803701734543       -2.22084876249773       -4.55550807146509
C            5.87609792765030       -3.58207877637925       -4.37979810557823
C            6.51329767538977       -4.30903625288183       -5.35681367191456
C            6.90632141234452       -3.69130625869555       -6.53385955524209
Cl           7.70552837865320       -4.60460637001435       -7.76381253922909
C            6.65608446890433       -2.34124763964582       -6.72503367845561
C            6.01919119042055       -1.61322841237860       -5.74806045095189
N            4.69364336335867       -0.09383809352379       -3.55097522356589
C            4.09592169371280        0.23362365614865       -2.34723398645795
C            3.72287237873406        1.43936618446201       -1.76620675193953
C            3.62279443306780        2.70514751877992       -2.40543999159312
C            2.98048519482873        3.64482207532800       -1.66080998319156
Cl           2.76544361397076        5.26133858793454       -2.18918768219108
S            2.39622047031294        3.02522079572200       -0.12436781120852
C            3.32200834281147        1.47467497099415       -0.29649016253301
C            4.56782225474340        1.56480729419458        0.58344209755203
H            0.55437903960394       -0.69565315083730       -0.42187704558539
H            1.20433053300857        0.33132411183648       -1.70241860441056
H            0.52722267383792        1.05906097831277       -0.24222527262372
H            3.58736160772623       -3.11532217827982        0.23747691776947
H            5.56831886461244       -4.05343248779085       -3.46322666811943
H            6.71490681638037       -5.35802305395562       -5.22297732221817
H            6.96502514554801       -1.87744529558766       -7.64625063363697
H            5.82029880367984       -0.56852090102153       -5.90238548398708
H            5.05676809360025        0.57995662924450       -4.22309338201348
H            3.95903810904367        2.88704244350431       -3.41156031084117
H            5.16537349482376        2.43538197630198        0.31332715053049
H            5.18995144396902        0.67705547338687        0.47014783867910
H            4.29206662560264        1.65690946154274        1.63368873943761
