76
 energy: -12.126588476531 gnorm: 0.000465746794 xtb: 6.5.0 (97a52f5)
C            1.71575315610889        1.45718857392957       -1.70520192830134
C            2.42513322187294        0.68969006148650       -0.60793708818112
N            1.61153515750539       -0.42833868784137       -0.10000717681346
C            0.86810729959383       -1.28677084156721       -0.93747552962148
C            1.52763917153722       -2.19661321199028       -1.80646288929976
C            2.92312081214284       -2.34036394337333       -1.80635660377459
C            3.54986197284746       -3.20575547452392       -2.66709102650264
C            2.81408976691419       -3.98411460211851       -3.56737385738132
N            3.47043965798451       -4.86149727876506       -4.47068467260600
C            4.72919323525244       -4.47745652347512       -5.15048911710180
C            4.46830895791576       -4.13100306187430       -6.62151897056600
C            3.72299116816286       -5.27161508932403       -7.33783617697862
C            2.44488479360917       -5.66258983037824       -6.57571983530320
C            2.77188258314927       -5.99177970094768       -5.11613265305270
C            1.42199393452714       -3.87467226385743       -3.54660300302640
C            0.76344029447453       -3.01103412620459       -2.68481368997349
O           -0.62560410355110       -2.97453469088881       -2.70508733755366
C           -1.26797502414740       -2.10231816954655       -1.83367150146211
C           -2.65376481894380       -2.06282632757727       -1.83837061404400
C           -3.37405071065880       -1.18863508436239       -1.02250667265719
N           -4.79428033048585       -1.16688593841518       -1.04559590485084
C           -5.55866007014431        0.09975753957712       -0.99240297243929
C           -6.20405045056904        0.40006650589136       -2.35075343295486
C           -7.04952837649814       -0.79023852850828       -2.83771196874205
C           -6.22361720789682       -2.08839723707326       -2.84796858980290
C           -5.59261402579428       -2.33413754522495       -1.47412270975623
C           -2.65769109969231       -0.32658345786522       -0.18580536841501
C           -1.28612223857022       -0.35169986849419       -0.15326354460284
C           -0.55336345502865       -1.24307304706541       -0.95443056201051
C            2.76441474330120        1.60648358175456        0.54888393097763
O            1.89746829773076        1.86013883845441        1.35432457685061
O            4.04759483211974        2.07603221591592        0.55367502276986
C            4.36329331457183        2.95121951397236        1.66971870540667
C            3.47281063353869        4.19948503812793        1.62622690532042
C            4.18255879418741        2.19854973752226        2.99431537619245
C            5.83395818056400        3.36997744817709        1.51999817060026
H            2.32910993453156        2.27911702390218       -2.07517873925425
H            0.78639290254524        1.87991969363811       -1.32573713962341
H            1.46764916065444        0.80903144217257       -2.54565386714788
H            3.36809146458398        0.27714859653765       -0.99108163313435
H            1.14522146270514       -0.07323367218353        0.73419315739462
H            3.50167615828959       -1.78575810828793       -1.09096069190181
H            4.61812763435282       -3.31871828045886       -2.62624648350680
H            5.42980443041124       -5.31344987497968       -5.06805471509796
H            5.18722529132377       -3.63473121317102       -4.62551441910140
H            5.40990421549844       -3.89806910550991       -7.13666538769593
H            3.86665752705359       -3.21609056938625       -6.67298386823590
H            4.38190370732042       -6.14442709774532       -7.41534803841578
H            3.48536657554626       -4.98940162419175       -8.37244124371996
H            1.93854586913391       -6.50684307664051       -7.06251054396359
H            1.73477315899046       -4.82834559818927       -6.60772519632561
H            3.43110773961443       -6.86359580207512       -5.06312605604208
H            1.88033502286595       -6.25486463565462       -4.53911832084817
H            0.82723457301162       -4.45209268415736       -4.22694572395518
H           -3.17208250888625       -2.70629563409015       -2.52225041072109
H           -4.89623439577923        0.91377994074075       -0.68499182489631
H           -6.32089236666309        0.00541513672422       -0.21363009187330
H           -5.41546784400141        0.60732534289963       -3.08349943754263
H           -6.81053149751614        1.31421001236288       -2.29869652884106
H           -7.46622923333271       -0.58812948864390       -3.83369993734609
H           -7.91502657284556       -0.91550505075308       -2.17653153113292
H           -5.43147430447263       -2.00867528160798       -3.60116877937301
H           -6.84086799401850       -2.94447563211008       -3.15186444750203
H           -4.96751462001566       -3.23212902829736       -1.46075424827874
H           -6.37097875665064       -2.49845654759502       -0.72293585410564
H           -3.19560990801117        0.34130472878436        0.46262436784735
H           -0.76222693335022        0.33457440160836        0.48615256400271
H            2.42532269697159        3.92203928082318        1.72390129500392
H            3.59399494685183        4.71854828792001        0.67760354254963
H            3.72174066048114        4.88893807102343        2.43118541017260
H            3.14662311729202        1.88934941757942        3.11732015290654
H            4.45634165749798        2.82339130533692        3.84284534915574
H            4.80232754516253        1.30423674174979        3.00960961250707
H            5.98464099353882        3.89081796724340        0.57656841533805
H            6.47825555591404        2.49305842244137        1.52195156780725
H            6.14255086567143        4.02728766866202        2.33124243450231
