51
 energy: -9.620106305915 gnorm: 0.000560001301 xtb: 6.5.0 (97a52f5)
C            0.40598015760851       -3.25979030842270        0.75735558567612
C           -0.96602076031735       -3.86431483114388        0.42961933318682
C           -0.79096103014162       -5.18442806263133       -0.31761545141096
O           -0.94760842757469       -6.25972669487098        0.20984974864729
N           -0.41081796034840       -4.98541889680622       -1.64734000602690
C           -0.29966105634102       -3.73074719304942       -2.28441086508244
O            0.33083394332865       -3.59434769758915       -3.31731146986986
N           -0.95886428550607       -2.65814368030982       -1.67670547263084
C           -0.74865558308426       -1.25959416276383       -2.07956138782785
C           -0.87970745817776       -1.05548952426366       -3.60399366992155
C           -2.10286514231770       -0.13779198389263       -3.78526184286842
O           -2.98508872937500       -0.64238540365983       -4.78661565133905
C           -2.73781176007677       -0.06284715096001       -2.35310324941171
C           -3.92736140965677       -1.01262063692507       -2.17909563455654
O           -5.04575090021202       -0.65684312235362       -2.96337181717124
O           -1.68298478307999       -0.38494478533733       -1.42747062898632
C           -1.83170789917752       -3.03882573449433       -0.55294280423971
C           -2.44605552787756       -2.28358972558259        0.66203815288479
O           -3.88330041658736       -2.25953145681208        0.60953450412351
C           -4.33766852688621       -3.48765561598537        1.08638346238083
C           -5.63386431940512       -3.96409598337895        1.07415376292611
C           -5.91969948938175       -5.24161448090221        1.55457557177978
O           -7.23295154323584       -5.68249949413980        1.51904521393679
C           -7.53270219127061       -6.94322013668107        1.98510164678642
O           -8.67298132258308       -7.38495317302944        1.98315593034160
C           -6.46812812126293       -7.77948746866883        2.49646650015026
C           -5.20001243815685       -7.35010537070351        2.52973456064789
C           -4.87236907303381       -6.05154935536682        2.05816150516041
C           -3.55826049465003       -5.56077451026185        2.08124975304494
C           -3.30474114771962       -4.30348642677954        1.61325022460382
C           -2.02791270142774       -3.52307049920386        1.53644095090445
H            1.04389254255766       -3.24958373213728       -0.12512137297431
H            0.90594654084991       -3.84748350968673        1.52630538781758
H            0.31229073586023       -2.23580888045865        1.11573366175253
H           -0.10453269455642       -5.79058197622335       -2.16253722387512
H            0.24879142929940       -0.96064844628268       -1.72535442305072
H           -1.07504418828611       -2.01591947487993       -4.08910197742965
H            0.02804489452603       -0.63982533644110       -4.05429438247033
H           -1.78671599083683        0.86679117770909       -4.11224734745183
H           -3.89214819835778       -0.66987354137341       -4.42363572155604
H           -3.05177195199158        0.96537575598348       -2.12001867394863
H           -4.23159729129797       -1.09504902531146       -1.12792817154146
H           -3.62223715754206       -2.01610698410789       -2.48954510534768
H           -5.50360909208345        0.12025190977774       -2.59656701566194
H           -2.62433195493847       -3.67238718144123       -0.97966215574891
H           -1.99164288924789       -1.30483181352740        0.89655681431151
H           -6.42583021358223       -3.35482088661677        0.68238384042482
H           -6.73047244223855       -8.76013468648823        2.85165791988786
H           -4.41676201453716       -7.98120330225427        2.91311540965643
H           -2.75272836937634       -6.16945309702755        2.45065924402445
H           -1.60562129629377       -3.26357340222231        2.52006483733854
