39
 energy: -5.592969813260 gnorm: 0.001820314170 xtb: 6.5.0 (97a52f5)
C            1.45882762103902        1.44860990476406       -0.09584041547513
C            2.82860924639353        1.59143102265466        0.37065882809885
S            2.94747934612604        2.31515486080538        1.96063202670958
C            3.85228389645817        3.70167829003872        1.32748690628625
O            4.12664645713359        4.69502064835441        1.97204412067313
C            4.20228053686731        3.44921076619709       -0.02076764546290
C            3.72852189405595        2.32327230702073       -0.53992023042251
C            4.04231936450801        1.89881272286892       -1.90395974521589
N            4.63591306615514        2.79193134632029       -2.73959622961502
C            4.89048851758457        2.36141680934945       -3.92067239624017
C            5.51122816929394        3.08352157759729       -4.96446997092389
C            5.95950439687364        4.36149453179132       -4.77931668326158
C            6.53805128420512        5.02751315626885       -5.75491211920899
C            6.70263798678830        4.45447282811430       -6.97615752414639
Cl           7.46347438780450        5.32772540395576       -8.25699555688028
C            6.26127232057114        3.18449764497134       -7.17493983442827
C            5.68377956355061        2.51910374146815       -6.19865241857672
Cl           4.45097731875041       -3.56128487762629       -7.39480515094053
N            3.81652726860411        0.64530178862937       -2.38274089697637
C            3.35281042040405       -0.43902664174677       -1.74273743211024
C            3.17545998890652       -1.65654980221281       -2.14274806433735
C            3.51163560933592       -1.89748727312796       -3.44250555411623
C            3.49863153338300       -2.98779845697662       -4.01468289519944
O            0.35930129594814       -9.26441992257502       -0.47366975808395
S            0.45868439691121       -7.24630169384397        3.10023080641664
C            1.87046204502097       -7.57706989416935        3.85822107043981
C            5.17883353590475       -4.16027369981928       -3.53099591775184
H            0.97846117600252        2.39701791542646       -0.23745522480056
H            0.87096857588125        0.83938173808438        0.56204038564713
H           -1.17240209755677       -4.17738338916385       -1.36233058253988
H            3.39701252470831        5.61379243585945        3.70508589535915
H            5.90907251223318        5.90992005996683        1.46858988483479
H            9.70937154871848        8.45623077243574       -2.51217366417395
H            5.07005595685206        1.50671557289004      -13.22643486802359
H            4.81731128240452       -3.43581236618805       -8.54092854304661
H            3.89636355531845       -3.21390298481984       -5.61616286458930
H            2.26558982816838       -4.10826345604404       -3.93388473614375
H            2.05210739158839       -6.89764909924865        4.63557715459375
H            7.23796627405050        0.16435569520591        1.30112983746336
