40
 energy: -8.095810468631 gnorm: 0.000651088311 xtb: 6.5.0 (97a52f5)
C            1.18466279228728        0.13781542991892       -0.26148090934072
C            2.63832900272292       -0.10299394544713        0.14512854079644
S            2.73313802307013       -0.03358282455682        1.94499217701404
C            3.38161218422275        1.61763428024168        1.94908962741746
O            3.46213246806924        2.33612170425837        2.92393959024764
C            3.82085375859503        1.96023778535561        0.61661452350408
C            3.51004541192035        1.04876092544945       -0.33246063275368
C            3.95895488257257        1.06951565146444       -1.70887900335017
N            4.50862952209033        2.06926958131791       -2.42001386506199
C            4.69721323662484        1.58818282020801       -3.64960954908969
C            5.28566466893402        2.36424905536347       -4.73414146108556
C            5.79486822331565        3.63688779719271       -4.47986248572224
C            6.35811901244406        4.38740051338442       -5.47999514548607
C            6.43162653742106        3.89209764368310       -6.78596025119711
O            6.99286058735676        4.61353102241187       -7.81945696731354
C            5.91464119473967        2.61797788926727       -7.04022044522721
C            5.35451737261371        1.87034420729450       -6.03641842524414
N            4.27979197612622        0.27008266492903       -3.75110644969713
C            3.82324271881037       -0.07717997757556       -2.51479769080616
C            3.30951594642958       -1.31378123250540       -1.97856541637164
C            2.87075797522469       -2.37590811643925       -2.69418071248873
C            2.24186300696966       -3.41354010438424       -1.91140927295809
O            1.87136208859048       -4.48926560358183       -2.33445871403783
S            2.06448451108497       -2.85833639123681       -0.23620026301274
C            3.18251202872831       -1.46254359764681       -0.46932809922701
C            4.53588995155040       -1.83430918328049        0.13699150597270
H            0.82912273506900        1.08943246014745        0.13380834602505
H            0.54024859758103       -0.65107658296582        0.12616911365710
H            1.08239341880842        0.16140896022113       -1.34647149220645
H            4.40501491861196        2.83973415212552        0.41639526029300
H            5.73918064004580        4.02132116320245       -3.47618936673529
H            6.74855682043268        5.36587682565865       -5.26585877088402
H            7.31786772970316        5.47540166617217       -7.50132875666673
H            5.96754931191276        2.23946665351251       -8.04554948656049
H            4.95569664645117        0.89562612163851       -6.25244810918382
H            4.35242937744894       -0.35073588449100       -4.55621572130345
H            2.91517352062506       -2.42364591528012       -3.76668372767132
H            4.91797966885359       -2.75084688869431       -0.31270492383397
H            4.44500282383095       -1.99736597968086        1.21081856947820
H            5.26812470811047       -1.04392474665293       -0.02835113988862
