39
 energy: -7.946259634676 gnorm: 0.000631519235 xtb: 6.5.0 (97a52f5)
C            1.20685914972437       -0.02635878506407       -0.10763824421911
C            2.67254866844345       -0.25758978586397        0.25864149262614
S            2.81162704253498       -0.21966528880889        2.05701371352037
C            3.44677331438642        1.43648332927451        2.07633149766881
O            3.54681865694026        2.13851160832756        3.06117106446903
C            3.84816125746715        1.80728269795830        0.73819801798092
C            3.51896986415404        0.91265742998666       -0.21979917922879
C            3.93575808013134        0.96239127371393       -1.60589923396683
N            4.46711795172308        1.97748526217493       -2.30919538249014
C            4.64197113699525        1.51577758430160       -3.54799840486058
C            5.20882193497487        2.31448847035461       -4.63025669753916
C            5.66113499320530        3.60567555879135       -4.37235875429584
C            6.20030735316605        4.37691785337852       -5.37676326846461
C            6.29605144399607        3.87243355052480       -6.65806321646956
C            5.85027122590557        2.59496131809162       -6.93194546981073
C            5.31109639700067        1.82108885652865       -5.92884256859812
N            4.23268019922517        0.19590540009125       -3.66383989553864
C            3.79631684975777       -0.17237820424035       -2.42781702554955
C            3.31029049487720       -1.42557968451316       -1.90105290016885
C            2.87353182369829       -2.48176723891668       -2.62438627096629
C            2.27519139812748       -3.54220776745140       -1.84514789478154
O            1.91703424133010       -4.61794348527668       -2.27809118226847
S            2.11636633696429       -3.01171319986465       -0.16002194887661
C            3.21603845188367       -1.60060864031756       -0.39213495729344
C            4.58517501191253       -1.96951757402110        0.17844706107384
H            0.85064142594876        0.91419824360422        0.31266050109283
H            0.58096087317712       -0.82910058453722        0.28176950715125
H            1.07751589215159        0.01459030358999       -1.18915486734435
H            4.42278860481633        2.69365711627839        0.54046106178487
H            5.58226058872676        3.99117782446343       -3.37053870742815
H            6.54745661923120        5.37438153820555       -5.16225957820176
H            6.71813951913216        4.47617818282408       -7.44471697440008
H            5.92348739661850        2.20275579296118       -7.93326956536785
H            4.95993800834104        0.82870523227024       -6.14737760429082
H            4.30185085887810       -0.41190486805653       -4.47901860392913
H            2.89682683322826       -2.51264234386360       -3.69815851220963
H            4.96790034039895       -2.87263589770613       -0.29707128084469
H            4.51860389591920       -2.15464181544539        1.25041552103814
H            5.30496586490670       -1.16769926374724        0.01363875099697
