40
 energy: -8.092701429504 gnorm: 0.000978592666 xtb: 6.5.0 (97a52f5)
C            1.30027390708251        0.19454093086085       -0.13308539072867
C            2.76043789017814       -0.09207423961121        0.21589059187432
S            2.91492744394028       -0.08983967259357        2.01329856189425
C            3.61935430100053        1.53737018326105        2.05481882588551
O            3.76528808166186        2.20930026934593        3.05461745748799
C            4.01441758556371        1.92100132553351        0.71972453215363
C            3.64291903919489        1.05617175347897       -0.25058141460625
C            4.04280126520312        1.11945657867678       -1.64086689240110
N            4.58687313369974        2.13310232373538       -2.33909401586803
C            4.71987625205933        1.68912979501863       -3.59070107635342
C            5.27730872847632        2.47375793072516       -4.67987313263590
C            5.75635988592862        3.75288070847010       -4.42700643276406
C            6.29210645326263        4.52331154448587       -5.43253997062574
C            6.35759018603552        4.02631673528367       -6.72032392874992
C            5.89063637682824        2.76462240999063       -7.00039926324689
C            5.34301311356297        1.95881621505768       -5.99833785619917
O            4.87567939617612        0.69339638696917       -6.28105036003786
N            4.27192527912688        0.38921965749283       -3.71648985069672
C            3.85248001971676        0.00349453951249       -2.47984439150805
C            3.33505214679900       -1.24131581072427       -1.96982878763432
C            2.86260833598080       -2.27327996545937       -2.70723580962432
C            2.23998964693104       -3.32709085420760       -1.94092469934647
O            1.84610801614548       -4.38507305068807       -2.38686615240681
S            2.11055132481539       -2.82042498069421       -0.24554064366817
C            3.25184396296976       -1.44075198864504       -0.46358623543620
C            4.61413924866841       -1.86399459429016        0.08548472590325
H            0.98054193284467        1.14102857035412        0.30313094462476
H            0.65069013132678       -0.59143115031074        0.25204362171570
H            1.16249213222770        0.25441163486674       -1.21276390582272
H            4.61775932097718        2.79001621533071        0.53128042377156
H            5.70129041682120        4.13281505414507       -3.42164086186490
H            6.66035597845496        5.51286060986636       -5.21696407684941
H            6.77693707943161        4.63109164395674       -7.50785089733071
H            5.94500050963316        2.38509172843869       -8.00487914875705
H            4.97592198535585        0.49624587889610       -7.23024308405135
H            4.28690838700020       -0.15823476928194       -4.58051728752576
H            2.87801540822821       -2.28640102399763       -3.78153859533922
H            4.96298791459946       -2.76976239989280       -0.41070305989694
H            4.55193498841465       -2.06736254511914        1.15442855550272
H            5.35736279367533       -1.08224357823341       -0.07161101883659
