51
 energy: -8.895384022061 gnorm: 0.000704851758 xtb: 6.5.0 (97a52f5)
C            0.94407323262700       -0.07671409137600       -0.15150224184015
N            2.40887841299071       -0.08420897863349       -0.15996942614261
C            3.05882705756339       -0.13348693092243       -1.47153796681033
C            3.15034923181558       -0.03428273674826        1.02518263652051
C            4.56189471146619       -0.04949891925810        1.00445876506196
C            5.28338349358526        0.00805878225994        2.15560837591851
C            4.65537562942183        0.09687515829407        3.41488222738241
C            5.38895605255286        0.16593814837573        4.63056160347615
C            6.86348927929458        0.19515017711853        4.63084785617453
C            7.59323141505874       -0.83085917520094        5.26302908952933
Cl           6.75710959938703       -2.14704251381845        5.98197116689512
C            8.98352368093814       -0.84359216739191        5.24802820676010
Cl           9.84268000736253       -2.10736254592919        6.05685888839034
C            9.67909884258871        0.14923823519198        4.58475352679148
Cl          11.40287288221597        0.12342303624128        4.55700768276728
C            8.98637322642542        1.17539899142425        3.93906739017828
Cl           9.87859810206207        2.41823406603051        3.15182521001230
C            7.59815940678722        1.22422996486142        3.95747639903003
C            6.89940920001997        2.34625731471669        3.27036504677333
O            7.16896061884235        2.58522912803425        2.10674344957446
O            5.98240987863010        3.05669912803058        3.98408674519125
C            4.65306211839334        0.20402630630544        5.84526196562240
C            5.29872757459701        0.30154826107445        7.10860869597990
C            4.60170493022292        0.36231477012908        8.26572978806442
C            3.17972805363601        0.33809073753186        8.26348625134834
C            2.43624564322155        0.40488950116023        9.44505508602855
C            1.04995284058876        0.38915560393380        9.42362522779774
O            0.28760822266445        0.45776870905532       10.56668007989438
C            0.39341661479409        0.30157922282226        8.17772991859630
C            1.09991247712488        0.23526419570696        7.01716993467058
C            2.50203590851693        0.25115603667662        7.02785144581029
C            3.24213067207389        0.18939447311695        5.80292991304180
O            2.53564794624698        0.13106203320569        4.63779860991786
C            3.23799866308599        0.08757279309975        3.45572821895269
C            2.52275831965684        0.02852321037782        2.26147125919298
H            0.54530546648847       -0.13542603815544       -1.16154104401064
H            0.58230734563546        0.84285939245476        0.30396027726085
H            0.57311768647338       -0.93250037835114        0.40875232078649
H            2.32461337248310       -0.13197883324351       -2.27375157436011
H            3.65259352394252       -1.04145368029185       -1.55516732830660
H            3.70015649329230        0.73629136319964       -1.59887073749624
H            5.07637028108580       -0.10520328513074        0.06180537127009
H            6.35838646085584       -0.00481588023827        2.10977124033418
H            5.93024422546593        2.75551358254802        4.90942158934461
H            6.37432487236636        0.31817030565377        7.13822259850117
H            5.11945216340472        0.42994310204368        9.20718534971599
H            2.95138782858929        0.47201596081951       10.38476412276477
H            0.84330108421699        0.52131573721790       11.36168798320555
H           -0.68271818237179        0.29060737099338        8.17248856994393
H            0.59652240858436        0.17051978873613        6.06665464695320
H            1.45180102302789        0.03251156624634        2.32712558753914
