34
 energy: -6.374437084592 gnorm: 0.000490820770 xtb: 6.5.0 (97a52f5)
C            1.22798468441949        0.17888900518072       -0.80676133366883
C            2.42128744681145       -0.10318637806461        0.04695107685832
O            2.71584536383861        0.67703753297551        0.92454273494477
C            3.19049153715221       -1.31683265962409       -0.19510117224095
C            4.29318647617588       -1.65886099311785        0.60362236934515
C            5.03488450474179       -2.84690985108690        0.37846957107286
C            4.70047212687229       -3.74072693930962       -0.65165261183328
C            5.46488982697682       -4.96200579912507       -0.87488043393510
C            5.06431370153827       -5.88749107674303       -1.97731703716446
O            6.43134626584057       -5.24072779585558       -0.20122805145741
C            3.59914889323969       -3.39406491935013       -1.45077638102926
C            2.86477777370808       -2.20673969302299       -1.23089413654799
O            1.84723362697303       -2.11134804376725       -2.16511407546511
C            1.95578471381815       -3.28593610901636       -2.97150509882169
C            2.08393997738680       -2.94555041929681       -4.45478895175242
C            0.85961075639258       -2.23473931178015       -4.95747482779436
O           -0.21206866622687       -2.76906316948593       -4.78235385196268
O            1.01169282682600       -1.04328866120826       -5.58705401366529
O            3.05327369923060       -4.08352977379738       -2.52037029563927
O            6.05810780503227       -2.92752023396508        1.30806559064895
C            5.93299906433994       -1.76697608026882        2.11035840770433
O            4.83862801627321       -0.97798279003389        1.67906899378933
H            0.82818902041681        1.16591793489577       -0.57435456454743
H            0.44585616709880       -0.56115118798173       -0.63463368558834
H            1.49161196613649        0.15226089054971       -1.86426932544111
H            3.97954080189972       -5.93868272696979       -2.07704515011583
H            5.43854746155252       -6.89062832101847       -1.77346142960822
H            5.48134082243959       -5.55358206199174       -2.92734148517038
H            1.03679749791546       -3.87336880250473       -2.79031900967668
H            2.23492673774634       -3.86441169700505       -5.02710190293250
H            2.97911109046351       -2.33716710586029       -4.59021397254413
H            1.93959105718983       -0.76346845375667       -5.66381321478779
H            6.85634231404226       -1.17369227539422        2.02827943345153
H            5.76593464173785       -2.07067203320103        3.15491783557448
