51
 energy: -8.830997494985 gnorm: 0.000656985836 xtb: 6.5.0 (97a52f5)
C            0.90813127754539        0.05121236536788        0.08499684419751
N            2.37120119480458        0.05389975926204        0.12344798820356
C            2.99746038951902        0.63387472568029        1.31218850990534
C            3.13376620761243       -0.48124950050472       -0.91914715358693
C            4.54425744673332       -0.45047151740097       -0.87990066976812
C            5.28682522609219       -0.98263021697489       -1.88641805255624
C            4.68136541914463       -1.59192863169905       -3.00378939002858
C            5.43990142579957       -2.15852787149828       -4.06286421605487
C            6.91712506714909       -2.16012207899421       -4.02909199497299
C            7.64486467905247       -1.42527911915787       -5.00555442643324
F            6.96625206840410       -0.66907363971203       -5.97333453628821
C            9.06376632064159       -1.39412125231038       -4.96064263948838
F            9.78534516687164       -0.71403480466283       -5.96796566506005
C            9.75263024857076       -2.04216981668710       -3.91594456504399
F           11.15769105360249       -1.98359330773246       -3.85394325758952
C            9.02612842361025       -2.76221427221565       -2.92137717437089
F            9.72386978534642       -3.39767204467049       -1.87869594242351
C            7.62833522639994       -2.83948528850273       -2.99800774644526
C            6.90041142673692       -3.64830682473941       -1.98154996610144
O            7.20831353052334       -3.53459154656185       -0.80776326438704
O            5.93090995768698       -4.50144346787430       -2.41549092788703
C            4.72967749734248       -2.73017321079290       -5.15193253932490
C            5.40645309599507       -3.36740821155447       -6.22735254238443
C            4.73696919010568       -3.93436443870448       -7.25578575588268
C            3.31596917873320       -3.91663846539441       -7.29966951845209
C            2.60264655367779       -4.49258807423243       -8.35400671124198
C            1.21683100221223       -4.47116771024443       -8.38086062858474
O            0.48927169685880       -5.03072175814828       -9.40634301594851
C            0.52953641732867       -3.85282238348373       -7.31536696836880
C            1.20636690269158       -3.28806976591399       -6.27970011438627
C            2.60804511826220       -3.30296082462880       -6.24326993135556
C            3.31823199973928       -2.71073109357211       -5.14897298901607
O            2.58662920613762       -2.15936222141645       -4.13701646973471
C            3.26501406180479       -1.61368580742475       -3.07030470733424
C            2.52856831006692       -1.06208430549144       -2.02430218526213
H            0.49227252030669        0.54959543848695        0.95702432810605
H            0.54049362945210       -0.97224827228985        0.06863900242775
H            0.55988839086435        0.57554016702090       -0.80189386618422
H            2.24951315312762        0.94490878797761        2.03714928309012
H            3.58554925086626        1.50502431438081        1.03270742748007
H            3.64266099069675       -0.10184260411099        1.78684538444879
H            5.03870316623244        0.00115431300857       -0.03898482098717
H            6.36042829442139       -0.94981117553421       -1.83146300461296
H            5.83899126254446       -4.46736101532811       -3.38664031252902
H            6.48196035157579       -3.39384338025527       -6.21636434986199
H            5.27523843527319       -4.40767574674359       -8.05832939063249
H            3.14038003137940       -4.96025215824600       -9.15672129262007
H            1.07775005212631       -5.42392754099028      -10.07462595664177
H           -0.54556521246651       -3.84072900150773       -7.34443716748112
H            0.67858225191133       -2.81787247080675       -5.46727967557502
H            1.45910165888617       -1.10278303247175       -2.09528326496971
