49
 energy: -11.428977890733 gnorm: 0.000796085792 xtb: 6.5.0 (97a52f5)
C            0.94448842745777       -0.11225095939383       -0.03004344224174
N            2.40616906129527       -0.04182068434075       -0.08130405152465
C            2.98498237057314        1.15024897476678       -0.70413346884067
C            3.20850499026013       -1.06017653190183        0.43873911417973
C            4.61877711857919       -0.97114003416971        0.39914727560000
C            5.40041202997796       -1.96001712571134        0.90848851866007
C            4.83844517378515       -3.11027255411759        1.50299872200909
C            5.63329229890871       -4.15274806392027        2.03980525353627
C            7.11068272211594       -4.07560924650656        2.01342974068266
C            7.83732864027434       -5.01147408599057        1.25971512528057
F            7.20157682253761       -5.97917486565698        0.57538457605549
C            9.21873791867642       -4.95626332468397        1.21049512616746
F            9.89968315852590       -5.86299221880605        0.49285409826383
C            9.90393145389615       -3.97404146669303        1.91148301214915
F           11.24317589091135       -3.92834519881740        1.85950721361545
C            9.20803899603316       -3.04573588617036        2.67173790461275
F            9.90426494411831       -2.13648751309410        3.37715014453205
C            7.81945856533067       -3.08739195150466        2.72572595611027
C            7.09138664182945       -2.08788176481780        3.58250306988431
O            7.18499345221441       -0.89837078130745        3.26227254528489
O            6.44007434499608       -2.53485662054583        4.53232724782226
C            4.97860519347916       -5.27592437023958        2.58552266622273
C            5.70636846551984       -6.35817088267251        3.16001491335091
C            5.08513755200432       -7.42968155645961        3.69700423895828
C            3.66070141658014       -7.51810462506845        3.71346311654968
C            3.00244663414222       -8.60831659662365        4.26038602655050
C            1.58895979167064       -8.69161893426728        4.27784714618773
O            1.00181418856661       -9.67308496012416        4.77050739081640
C            0.85553488497178       -7.60002841708788        3.70531545653617
C            1.49447110521400       -6.53271388369034        3.16998018381650
C            2.90277303720975       -6.45561932231901        3.15521774995060
C            3.56093320854611       -5.32431325724003        2.59060037072764
O            2.78809265057878       -4.32093727110893        2.07681939348647
C            3.42423614392855       -3.22349317943761        1.53950773315110
C            2.64739056291453       -2.19432513401425        1.01019013211481
H            0.49283853278503        0.78564322270559       -0.44591184616853
H            0.61363776403396       -0.20987606489527        1.00209666535769
H            0.59429969050453       -0.96751589705356       -0.60475863532274
H            2.20906699046499        1.81741105537089       -1.07289568095351
H            3.61150073606942        0.86189265853572       -1.54588889545239
H            3.58437093197758        1.69422553936386        0.02331875964428
H            5.07965727711039       -0.10193103671991       -0.03487607429233
H            6.47159087663113       -1.86443276346445        0.87440172448628
H            6.78144055821072       -6.31152520139861        3.15797881113543
H            5.65959041654586       -8.23480264435790        4.12178467033664
H            3.56414207949304       -9.41804067253334        4.68617497326639
H           -0.21816396687032       -7.65518994703143        3.71468620876545
H            0.93695972810957       -5.71654801358624        2.74248809536159
H            1.58119852731030       -2.30617594119844        1.05314102357725
