49
 energy: -7.057261262000 gnorm: 0.177392194526 xtb: 6.5.0 (97a52f5)
C            2.01174974678567       -2.00682032364749        1.29223975612683
N            2.93338609500220       -1.20414240974182        0.66558247422165
C            3.38981116286001       -0.10659131658731        1.35289290634866
C            3.38335058923324       -1.50974815872064       -0.57617392747187
C            4.28611551214273       -0.82256240295806       -1.29044889078521
C            4.72801077993341       -1.11576793722996       -2.48008433255009
C            4.38016540645484       -2.16655259916106       -3.23562062556190
C            4.80299821840216       -2.46928177471255       -4.46804799431484
C            5.83440593637422       -1.89759797004398       -5.24470164163746
C            6.90989435973079       -1.25415364849849       -4.59492898471596
C            7.19691870307143       -1.65791583525908       -3.33915244510192
C            7.72871352051210       -0.26126759829432       -5.09619540594274
C            8.77396484519322        0.11537527970767       -4.32754488176624
C            7.53805538825212        0.38892884748592       -6.25310036303942
C            8.45525885850020        1.22594607510176       -6.70989713888305
O            9.45452669938964        7.51487680750374      -12.82289979095993
O            4.83117807877094        0.84813000320598       -5.18689010226668
C            5.74719170609157       -2.05540003565406       -6.60723376964282
C            6.75628327276241       -1.98057533754160       -7.61800197253064
C            7.93531827651268       -2.22313403009545       -7.27236839078012
C            6.37545371868075       -1.68888734312539       -8.77586439806681
C            0.68091503525719       -1.06037048741277      -13.53326775920941
C            0.08718811052083       -2.09613646852192      -14.11489059187809
O           -0.26866531281058       -2.30309207529833      -15.26642427122331
C            1.77759696411219       -1.67696010868896       -6.71529756057016
C            2.25875902118178       -0.68711041141387       -6.06033547575258
C            1.76559583086204       -0.19350058551571       -4.86475882942433
C            0.73903565917066       -0.76441734375935       -4.35582442572300
O            2.33042198531285        0.89846325042745       -4.18462163459077
C            1.93367941393164        1.42497659110547       -3.07167325698180
C            2.39212295430758        2.43382514660245       -2.36052617912311
H           -1.11310260040028        1.19391802769994        2.42129390917916
H           -3.84172364068345       -4.98970143097096        1.34984678672994
H           -1.50909665962832        4.26962879040090       -0.65024976578467
H            1.19616283287648        0.67616181781960        6.82654665220344
H            4.83199261232686        5.44929440169001        1.34245607390811
H            5.13190395232431       -3.93005062176418        4.13845338242114
H            9.20314656426924        0.10732816302694        1.43501402147057
H            7.79004566131816        0.04173430197093       -2.61577522969902
H            7.26747925204729       -3.19709467763996       -2.39255900287930
H            9.17380481726396       -1.48110738519877       -3.44148546186699
H            9.16006424865355       -1.07278598787096       -7.38584139914845
H            9.61227268292029        1.44675710895833       -5.24836042694514
H            8.75593098945542       -3.57671029708411       -6.82249098428004
H            7.79034694541765       -2.11903023244982       -9.57728384062850
H            5.37783694105635       -0.82341111141464       -9.72450624466364
H            0.66822648567159       -2.84656639619115       -8.63835393706272
H           -3.60995764844997       -1.10138935776152       -5.15655417485771
H           -1.93008396078580       -1.83511091692304       -1.01584044683099
