83
 energy: -14.673363362320 gnorm: 0.000641025389 xtb: 6.5.0 (97a52f5)
C           -0.67572503946749        3.04846119866534        0.42159408777693
N           -0.79336852793864        1.62288676147943        0.12924505369836
C           -1.95842072631534        0.88245241786265        0.04811504672451
C           -3.26089800436675        1.31041313555086        0.01350351128234
C           -3.69059126036977        2.64413310849976       -0.08195280526532
C           -4.98815048682705        3.07125593558473       -0.10811623156060
C           -5.21829849288351        4.48764238475269       -0.18527017956955
O           -4.11019628647485        5.28050619694399       -0.28238038117680
C           -4.28014078707107        6.64658191167063       -0.36605881622709
C           -5.56276102580449        7.23215313512103       -0.35254338398519
C           -5.66640791192827        8.63114117393791       -0.42131743545692
C           -4.56803244262262        9.43786356131517       -0.51581087419375
C           -3.27131420452890        8.85666916804657       -0.54240069413576
C           -3.14206982120541        7.46820254086575       -0.46229936036594
C           -1.79636125109933        6.81444649294810       -0.47732842878184
C           -0.66832958444503        7.75292298007063       -0.02856342452662
C           -0.77569926406509        9.10614166550202       -0.72764242999945
N           -2.13923404254028        9.66933411143539       -0.64230948138668
C           -2.24081607404582       11.13508121762306       -0.79984268354348
C           -3.49874133526745       11.69719836760251       -0.14139402721927
C           -4.74557026278168       10.92626894336677       -0.59623312054731
C           -6.70913429879967        6.39191066999519       -0.25204236876262
C           -8.06937958542692        6.98684267987462       -0.22647652613648
C           -8.84422295113369        6.88556533147320        0.92957529987836
C          -10.09700968879538        7.44633595487318        0.99997532147852
C          -10.60787061057743        8.13172870568430       -0.08294585266139
C           -9.86198669677147        8.25156711485774       -1.23257650599625
C           -8.60113316013517        7.68557839298884       -1.32903913873612
C           -7.83770427154988        7.87195377939168       -2.59905357678625
O           -7.77431844076222        8.98832120920031       -3.08265419991402
O           -7.26471593963867        6.77081981418467       -3.16267474104729
C           -6.52792309756939        5.02196850895379       -0.16081304074017
C           -7.70955338034836        4.10195131954664       -0.02863342411231
C           -7.44810565067686        2.70401343197387       -0.60652212943939
C           -6.13927418199735        2.10610644435840       -0.06649371938810
C           -1.55581032485704       -0.59810262883033       -0.01064506675198
C           -2.05765417054178       -1.34728476441605        1.23235475283266
C           -2.07401730132311       -1.25180691655262       -1.30025255738753
C           -0.03280812381866       -0.54026883654258       -0.01795388806085
C            0.90569965812387       -1.54734105580750       -0.09461187295091
C            2.24735389259683       -1.21286592192861       -0.09439349013489
C            2.64368743268455        0.11266541356669       -0.02208293988051
C            1.71064764661720        1.12434155047788        0.05621289667304
C            0.36159483787002        0.79469320296519        0.06294532480833
H           -1.39584888491920        3.33652959421803        1.18409064352704
H           -0.83437473506405        3.62955481375412       -0.48395448240975
H            0.31418973451643        3.27712341544638        0.80735733568197
H           -4.01756255979469        0.54801932450679        0.03491445854639
H           -2.94668502674242        3.41139966351671       -0.16749139189096
H           -6.64238967194468        9.07998301807515       -0.40976762315785
H           -1.59763748451250        6.44562973812818       -1.49007164088202
H           -1.83431727856592        5.92423540197859        0.16214068251232
H            0.31319128067316        7.29774082875002       -0.21833061332795
H           -0.72478098095584        7.89900746829604        1.05658347848274
H           -0.52144260024640        9.01084209239549       -1.78770698695590
H           -0.06858578279709        9.82449837947164       -0.29986307920185
H           -2.24016884419497       11.35412257273732       -1.87200152150085
H           -1.34014491034380       11.60012023126723       -0.38553781788394
H           -3.60329637057088       12.76880888334027       -0.35907834154864
H           -3.40112156313166       11.62190355094815        0.94809442571258
H           -4.99293612858128       11.19392699338588       -1.63006878242131
H           -5.61646363632474       11.21882115685556        0.00360983506800
H           -8.43664246560183        6.37082160056132        1.78227170852107
H          -10.67771087301525        7.35679022547296        1.90314200241563
H          -11.58762656652052        8.57686590494517       -0.02642053392785
H          -10.24877909686759        8.79620720869463       -2.07695145863739
H           -7.43085088652555        5.97662580102213       -2.61628359608238
H           -7.96924485010809        4.01682259228460        1.03252901005459
H           -8.58289213562702        4.55491675685870       -0.51288664731640
H           -7.39530233447003        2.76654570245208       -1.69981064944983
H           -8.29325195868703        2.03621529642018       -0.39061612580275
H           -5.88181510864916        1.21025538393935       -0.64340461169808
H           -6.28030816527831        1.76996174053041        0.96701154326131
H           -3.14553667450423       -1.35229304006172        1.27530554614370
H           -1.68545292432343       -0.87309209084118        2.13929168383828
H           -1.71514326375151       -2.38087277486780        1.22674716642248
H           -3.16238960028478       -1.26253900168555       -1.32533124027180
H           -1.72476287096162       -2.27986964417604       -1.38181580255941
H           -1.72080019596975       -0.70434859978102       -2.17290513110396
H            0.58974122625966       -2.57381071568027       -0.15422813993458
H            2.99064732478582       -1.99043525046018       -0.15453282394917
H            3.69339010742866        0.35579042540926       -0.02877657537946
H            2.01805199504436        2.15345554275261        0.09770359877790
