65
 energy: -11.985437269425 gnorm: 0.000808103251 xtb: 6.5.0 (97a52f5)
C           -0.04886608452391        2.96214923765946        0.12741602251283
N           -0.20002055463201        1.51268062281393        0.02387484013859
C           -1.36872578273281        0.78970271351317        0.29070382400959
C           -2.66262802791431        1.24097970683570        0.41299651473712
C           -3.11481073649958        2.51585098318421        0.07915061548168
C           -4.38922916314638        3.07937011559482        0.24957110753826
C           -5.54619728407052        2.59179754264026        0.82073064298920
N           -6.71029107019803        3.35941760763555        0.93569943345831
C           -6.88300751204309        4.71790969760533        0.40155176437561
C           -7.22180865312523        4.70080475781204       -1.08164623139508
C           -7.42051039234024        6.08083937290910       -1.66903140200838
S           -7.80378586742573        5.97731880983363       -3.46362566778320
O           -6.59153046058521        5.32815439771403       -4.03577544134819
O           -9.04817238635123        5.16108141002616       -3.51052501281275
O           -7.98250692159859        7.40642826546264       -3.83247401936684
C           -7.77917167305992        2.65262602995043        1.52849526700799
C           -9.08848390380751        3.03945378202185        1.79342912579165
C           -9.94085742837759        2.13518777004326        2.39199871870844
C           -9.50208676690012        0.86136301334303        2.72395434376013
C           -8.19985893248524        0.47091797231357        2.45973682821034
C           -7.34158427239710        1.37068609999033        1.86202791148511
C           -5.88219697781680        1.21780051009640        1.42487273576721
C           -5.82370250766505        0.10994690544287        0.35350333535054
C           -5.03147904277424        0.92924666156280        2.67563429652956
C           -0.96146918407917       -0.68015860825669        0.45777316611497
C           -1.24354003174023       -1.16234681524589        1.88775337570037
C           -1.67739950551330       -1.56301642147393       -0.57447580544484
C            0.53994509888089       -0.65585228147504        0.18956883821714
C            1.46888047049161       -1.67546286997013        0.18246262662019
C            2.79411988036264       -1.37324072962456       -0.08155048793850
C            3.18445540466215       -0.06637941814130       -0.33558377949023
C            2.26232828818330        0.95921543440177       -0.32850064959317
C            0.92988777893345        0.66261072082336       -0.06133560144685
H           -0.25368097699800        3.43335190946018       -0.83164144586190
H            0.96653446848464        3.21453344749764        0.42380556954982
H           -0.71941310529366        3.35997207262926        0.88617142144517
H           -3.37566323505346        0.51771623946067        0.75018880092699
H           -2.39465099917689        3.14671772108259       -0.41036171301551
H           -4.47466306802800        4.08716950296984       -0.12147383446627
H           -5.97733432229367        5.29899983104646        0.59296443428370
H           -7.67168479252980        5.21959173944061        0.96804718853993
H           -8.12366726434334        4.09620025652053       -1.23999790927102
H           -6.43198278826918        4.17437768462857       -1.63153775951808
H           -6.52694210572025        6.69226054667981       -1.54572174897714
H           -8.23756530777593        6.60464847176791       -1.17344467655156
H           -9.42693606432496        4.02510656066383        1.52967927918421
H          -10.95837013252804        2.42027425876082        2.60199285036305
H          -10.18234755104952        0.16698138434292        3.18891925344862
H           -7.85484218384793       -0.51698057719309        2.70842907109564
H           -6.64976023603564        0.22905069920385       -0.34704243312667
H           -5.91380110097171       -0.87690404040937        0.80528288547156
H           -4.91286314686601        0.13959299195541       -0.23766352390947
H           -5.28298978889385        1.63569756216110        3.46591000793988
H           -3.96530329912742        1.02833542340755        2.49473401356577
H           -5.22346723052889       -0.07366776297415        3.05419152215123
H           -2.31114148993077       -1.15363205541825        2.10151000071661
H           -0.74731561903988       -0.51829474947840        2.61245086444997
H           -0.87921598543071       -2.17821104874462        2.03352318464461
H           -2.75492934189010       -1.55333414890837       -0.41831602786067
H           -1.33616298509408       -2.59492818415447       -0.50593702773092
H           -1.47818514782694       -1.20775766668144       -1.58462008113128
H            1.15873275831879       -2.68602992315446        0.38178713278303
H            3.52863778503263       -2.16140057293615       -0.09031927065890
H            4.21991710897721        0.14989943562622       -0.54079968830672
H            2.55974135035345        1.97123999370249       -0.53608157606770
