74
 energy: -10.727014297585 gnorm: 0.000491123561 xtb: 6.5.0 (97a52f5)
C           -0.22800354973840        2.79548622505946        0.54892029685235
N           -0.59260323980608        1.42672193357079        0.19442639742412
C           -1.85191242688620        0.90602705363735        0.09452271621122
C           -3.07511944937377        1.56307778650680        0.10367130524221
C           -3.28036788930349        2.92871919353701        0.01382986070219
C           -4.54580726749445        3.49142317023116        0.01667545483882
C           -4.85598972809851        4.83836456297044       -0.11803985505752
N           -6.11061042393098        5.39239333379770       -0.14466002355400
C           -7.47331052433136        4.80392389190508       -0.07340014680529
C           -7.61760026943526        3.28902009567001       -0.11704258957150
C           -9.07409871457015        2.84451404059121       -0.20683229566315
N           -9.29375809930568        1.32797861518068       -0.22146477153450
C           -8.60433734909712        0.69234089024383       -1.40952020967841
C           -8.78730427502149        0.69555922969840        1.05724362327318
C          -10.78446178466278        1.07180642130906       -0.33105603274183
C           -6.04736277854606        6.81120361335621       -0.27300193765489
C           -7.06842745515287        7.75160163722810       -0.32941991609550
C           -6.74023413581721        9.08656375019374       -0.46460255322333
C           -5.41834884153395        9.48173367559580       -0.54136059962633
Br          -5.00125689974709       11.30751569318182       -0.72427398612360
C           -4.39816278609861        8.55518785333116       -0.48525577964971
C           -4.71978697008190        7.21757994958893       -0.35025225349156
C           -3.83602095627072        5.98374290472625       -0.26044537504114
C           -3.01824843808605        5.85460012205751       -1.55634163131105
C           -2.93895808593731        6.09612601160604        0.98277214493714
C           -1.71585062858425       -0.61738485989979       -0.04182536003279
C           -2.33451274644999       -1.32991828726839        1.16997896427763
C           -2.34562257272362       -1.10428995860188       -1.35568604595020
C           -0.20680966340975       -0.82348945592841       -0.06582977111438
C            0.54630398314127       -1.96994362389243       -0.20377537215845
C            1.92462076949918       -1.86776696847060       -0.20387646507002
C            2.54011405469362       -0.63450099309907       -0.07112134573592
C            1.79275261317154        0.51513947784128        0.06744767977649
C            0.40830694617968        0.41832057080860        0.07461489114935
H           -0.90400960932020        3.17545535780416        1.31081918467177
H           -0.25819785931217        3.43221752999729       -0.33201793758183
H            0.77653811258543        2.82459500757527        0.96200803975324
H           -3.95412126916574        0.94372611522358        0.13273613244843
H           -2.43084808843859        3.56529526094224       -0.11375155521229
H           -5.35193724907682        2.79898954004441        0.13596716876261
H           -8.03670420598402        5.22962567749993       -0.90878974800877
H           -7.94435237681289        5.19034281404936        0.83482790697724
H           -7.16630042408603        2.85588835165829        0.78024664804894
H           -7.06459721546681        2.89933335645062       -0.97718977119083
H           -9.53184058486515        3.25818744789017       -1.10776427109825
H           -9.63808015536798        3.25606673981993        0.63271705118914
H           -7.52574395383733        0.78632075025166       -1.32354509491640
H           -8.92567973955729        1.16927409398469       -2.33165933647270
H           -8.84942001743119       -0.36518525818099       -1.46238591896453
H           -7.70732221680731        0.78437718731964        1.12930941428333
H           -9.04236726970869       -0.36071054357878        1.07856627555403
H           -9.23730732664369        1.17815649949778        1.92080530308172
H          -11.17613183574424        1.50697728481195       -1.24670562963057
H          -11.30650055965261        1.51233504532676        0.51430523377606
H          -10.98496649699899        0.00373657308571       -0.34279641806116
H           -8.09582310259820        7.44297779388324       -0.26472649180265
H           -7.51310032013020        9.83664914061605       -0.51109491479942
H           -3.37201650040135        8.87353831089482       -0.54535991025592
H           -3.68274375458883        5.78793173029671       -2.41663073225047
H           -2.38405223543164        4.97216162536510       -1.55638402218244
H           -2.37708370402560        6.72369679398389       -1.69502534475874
H           -3.54729867672800        6.22107399290472        1.87748649260811
H           -2.27702548198588        6.95717501711188        0.90482376249339
H           -2.32133224628192        5.21306641147289        1.12119277472439
H           -3.40714916628701       -1.15220051340740        1.22511147618879
H           -1.88377369008626       -0.97069598426338        2.09393600988789
H           -2.17329711127234       -2.40514397828779        1.11134478567445
H           -3.41813735799855       -0.91789763140641       -1.36948728541774
H           -2.18721333011221       -2.17312610911705       -1.48969447587124
H           -1.90125019415503       -0.58781119845164       -2.20523524792227
H            0.06075805578827       -2.92372907508546       -0.31049088848668
H            2.52497338012210       -2.75587940945495       -0.31180506359948
H            3.61587113408804       -0.57234843117497       -0.07893329169738
H            2.27046422659203        1.47405912642246        0.15386067222897
