77
 energy: -12.536536286016 gnorm: 0.000514982253 xtb: 6.5.0 (97a52f5)
C            0.18336899323668        2.91047428445547        0.70595431573658
N            0.01029056476104        1.49664811595813        0.38006160981982
C           -1.17336753063025        0.76250987818911        0.51868240422511
C           -2.46373105508282        1.22203435936219        0.65061342034190
C           -2.87534860497806        2.53284294531476        0.42077789664925
C           -4.14339701195606        3.11386291919767        0.57429926006151
C           -5.33691306565592        2.62492826744322        1.06281214093985
N           -6.48895186610474        3.41412944728132        1.14823809961583
C           -6.62190599689818        4.76747076729297        0.58597134742005
C           -6.79535687730267        4.72871879267519       -0.92586682645251
C           -6.90995743019625        6.11392166133128       -1.55065220851636
N           -7.02205099901349        6.13090538019955       -3.07874851446574
C           -5.77942282070380        5.54806480287702       -3.71708923857860
C           -8.23838690812989        5.35808327372301       -3.53979373358580
C           -7.16438418986880        7.57262409914319       -3.52489845716162
C           -7.58586668619454        2.72822085393105        1.71275615174993
C           -8.88980436148488        3.14348193734513        1.96218884496155
C           -9.76932154258605        2.25173310127464        2.54000376789369
C           -9.36489946352286        0.97047176346226        2.86360170348828
S          -10.54794588921119       -0.16736596739959        3.61234640326047
O          -11.25379213422792        0.65314991444843        4.63399166687853
O          -11.40574233243892       -0.58816637050019        2.47118352148474
O           -9.72074963439069       -1.26457266555773        4.18465131886497
C           -8.07410460147390        0.55089382464771        2.61596182155639
C           -7.18267254259592        1.43327421858306        2.04054496367873
C           -5.72544842770152        1.24395659458195        1.61534406510927
C           -5.69789339320641        0.17379776384865        0.50644423701563
C           -4.89799738989695        0.87809232248864        2.85954647122818
C           -0.78826639732266       -0.72243603438101        0.48914126946601
C           -1.08792387640356       -1.38867581931596        1.83949228079165
C           -1.50707278224208       -1.44696735322128       -0.65864172776591
C            0.71558877317491       -0.68333415925166        0.23490994004949
C            1.62793863938600       -1.70376393220130        0.06776913667765
C            2.95680420469591       -1.38562052042350       -0.15292573492836
C            3.36815152679788       -0.06240966044773       -0.20647511915966
C            2.46335967607511        0.96410943826260       -0.04007835078828
C            1.12750026914435        0.65063443402914        0.18362881341565
H            0.06567716196269        3.51946071239254       -0.18751412375968
H            1.17679486081062        3.08067927082206        1.11365855489238
H           -0.53754934213737        3.21606099013720        1.46077631775353
H           -3.20269671906287        0.48487676909540        0.88584938459898
H           -2.12042775588523        3.18279485306281        0.01524529204721
H           -4.18733620057049        4.14633544754524        0.26991613450225
H           -5.74795630129771        5.35868466407911        0.87034474143184
H           -7.47269123785804        5.26494099953640        1.05727929637661
H           -7.68036613118045        4.13017562070367       -1.16547666222679
H           -5.95517698623813        4.18444657678717       -1.36781432165641
H           -6.04295013445494        6.71701176972816       -1.27290558751039
H           -7.77995655436633        6.63243203536630       -1.14221037899912
H           -5.68618903714661        4.49099438347355       -3.48547905980856
H           -4.89311204130928        6.06505392320536       -3.35883255747406
H           -5.82917251745398        5.65424214793972       -4.79759889754280
H           -8.13058542731550        4.30135940895122       -3.31240690101050
H           -8.36312102356972        5.46245639717201       -4.61441369136147
H           -9.13208706709904        5.73361847121234       -3.04849330833290
H           -6.30003951176110        8.15213026094405       -3.21120931068882
H           -8.05693102153810        8.01630080350484       -3.09145774023558
H           -7.24258772223859        7.62729720222963       -4.60760410346647
H           -9.20348061953401        4.13906006928062        1.70694727219769
H          -10.78458072481264        2.54773308604671        2.74769789795681
H           -7.77086335154592       -0.44974968025419        2.86826619824279
H           -6.49538778070846        0.36505031527475       -0.21090745837868
H           -5.85647582121872       -0.82130945948852        0.91926712301229
H           -4.77015856281088        0.17083166570139       -0.05766002724154
H           -5.09257851860271        1.59298241190029        3.65812934484077
H           -3.82828026157708        0.89313950161635        2.67433168157166
H           -5.16628030675754       -0.11128715760550        3.22690932687678
H           -2.15656883073365       -1.38982984846857        2.04732821041736
H           -0.58630325145692       -0.85763797352201        2.64715694587676
H           -0.74177691641018       -2.42104100077339        1.84774029936557
H           -2.58556661716971       -1.44287073778952       -0.51074278131512
H           -1.18064530098971       -2.48330237797980       -0.72905659514569
H           -1.29427157448609       -0.96007553183013       -1.60925140552454
H            1.30295924252375       -2.72819175595165        0.10967169341149
H            3.67829798204516       -2.17466926813483       -0.28515246448448
H            4.40625159032566        0.16614108954921       -0.38278379475882
H            2.77460349776019        1.99151126588654       -0.09662150544335
