74
 energy: -10.778320810119 gnorm: 0.000174830084 xtb: 6.5.0 (97a52f5)
C            0.07491810307037        2.92349317205944        0.85653641703612
N           -0.08788049740855        1.51156171712648        0.51642433906615
C           -1.24575708196160        0.78542592224659        0.53221191472256
C           -2.55454648974539        1.24249702350985        0.63285515350011
C           -2.96041152883574        2.54800209164743        0.41699919004491
C           -4.22832955639086        3.11510112042007        0.53005049793761
C           -5.44921562132333        2.60817629597603        0.96868879646755
N           -6.58134466626950        3.37182096731668        1.00806973686198
C           -6.71391066362175        4.73672584991639        0.47022852769417
C           -6.80149963696265        4.72473475850162       -1.04922893274875
C           -6.88028102276625        6.11779831177697       -1.66054903771027
N           -6.86820523543263        6.15303235487874       -3.19278301388957
C           -5.57106381961024        5.59158319871092       -3.73611247910279
C           -8.03459020159612        5.37416083143302       -3.76115255273605
C           -6.98972190535859        7.59943103448216       -3.63103314930736
C           -7.70465713964455        2.67715995450928        1.53584386764926
C           -9.01484838485632        3.08477444240684        1.74225261835343
C           -9.90866818719544        2.19322225347964        2.29510820016063
C           -9.51050512315137        0.91212602814374        2.63822437090552
C           -8.20744660067735        0.50097859764746        2.43022468261433
C           -7.30775621496577        1.38927445570888        1.88000726882590
C           -5.83609104647836        1.21791470237696        1.50227160371789
C           -5.76064243983712        0.15299291319383        0.38888985733641
C           -5.04158742588002        0.85800132997901        2.76994964380512
C           -0.86766002593312       -0.69894182199770        0.42379078457393
C           -1.25929362152627       -1.45728640330149        1.70000144090992
C           -1.51052204614570       -1.33146316371365       -0.81941792542841
C            0.64794349584084       -0.65230268389249        0.27480632644601
C            1.57123092753308       -1.66050860713440        0.09693113442606
C            2.90778652412880       -1.32883705028534       -0.02293738232242
C            3.31426098784171       -0.00601467816533        0.03114457865307
C            2.39630740617756        1.00650150653275        0.20868883958115
C            1.05404664915824        0.67878767609393        0.33486270663076
H            0.01233290659453        3.53550635673055       -0.04016465959278
H            1.04337823469013        3.08670031759768        1.32232681862591
H           -0.68641618001795        3.23049968579700        1.56962911542390
H           -3.29712621475084        0.49711456971416        0.82631156941617
H           -2.19269340851814        3.21025960980642        0.05636989525659
H           -4.26850378088732        4.15298587019491        0.24535514625859
H           -5.86817538370157        5.33705480693519        0.81356041986087
H           -7.59849128300630        5.20833312016538        0.90300698418751
H           -7.66947236958953        4.12894252050991       -1.34950100075304
H           -5.93626463995535        4.18883379102867       -1.44995023570777
H           -6.04336109181884        6.72354979914367       -1.30733148445114
H           -7.78470871225579        6.62288634329729       -1.31558744273862
H           -5.48770350483519        4.53104890083701       -3.51744884464907
H           -4.72236718879074        6.10835308137173       -3.29593094858146
H           -5.53183193426183        5.71807912676692       -4.81483421719779
H           -7.93821666387160        4.31692322174548       -3.53139857824962
H           -8.06715767931029        5.48471938028090       -4.84185945550542
H           -8.97009801743032        5.73998018901095       -3.34642834013424
H           -6.15955309818850        8.18291292889649       -3.24171527612048
H           -7.91874994352579        8.02833211822187       -3.26483893184642
H           -6.98158641234110        7.66748998378999       -4.71569403857509
H           -9.32539271083646        4.07763317757622        1.47303978900356
H          -10.92915948412487        2.49655674946952        2.46204265446751
H          -10.22312340883474        0.22813702813576        3.06832452357470
H           -7.89241958475708       -0.49493932030231        2.68684545355778
H           -6.55547909262629        0.32094853516411       -0.33712979355376
H           -5.89099645966319       -0.84859251664508        0.79583231034361
H           -4.82741193506016        0.18417852921198       -0.16528126956447
H           -5.26627257890337        1.57003324389802        3.56306312497190
H           -3.96726570733291        0.88367975920183        2.61475896401735
H           -5.31043265333218       -0.13433397881035        3.12836005656392
H           -2.33918447617288       -1.46393659547198        1.83689141835377
H           -0.80903631585220       -0.98985212839607        2.57444616973604
H           -0.91903482549732       -2.49065434138492        1.65640456793662
H           -2.59647987009077       -1.32627320543987       -0.74439054895432
H           -1.18557736964844       -2.36321367063631       -0.94294383524672
H           -1.23070899907335       -0.77912655183563       -1.71531041838511
H            1.24774179617455       -2.68524112712749        0.05135043694738
H            3.63936800320685       -2.10715418786525       -0.16329457767111
H            4.35979846818186        0.23463310121920       -0.06891837791191
H            2.70730565987495        2.03510767663387        0.23621483218230
