72
 energy: -12.355890558257 gnorm: 0.000353230137 xtb: 6.5.0 (97a52f5)
C            0.17646851265747        2.90753942457816        0.93589491202911
N            0.00368151827473        1.49858015469002        0.58965246903099
C           -1.19198943345155        0.77469717787253        0.67079132800667
C           -2.48447204403087        1.24012496122930        0.74669096507024
C           -2.88032980267113        2.55870640311652        0.53683090973655
C           -4.15879654029892        3.13125758782858        0.61915855051993
C           -5.38985121180812        2.60600047261529        0.95135900371431
N           -6.55378132258741        3.38182844083827        0.98096325876318
C           -6.63730167236401        4.78528738745942        0.54714820348578
C           -6.65080285196517        4.90902896366511       -0.96856970325122
C           -6.69748692653280        6.35673571850547       -1.45575761064860
C           -6.63350143813887        6.46685681606046       -2.95006424229545
C           -5.41097174021095        6.55654147504301       -3.59795633826180
C           -5.34665014094781        6.62385736249370       -4.97410641901447
C           -6.50502514205658        6.59608710732638       -5.72107219965205
C           -7.72687158408074        6.49664843393016       -5.08994604829721
C           -7.78992699546855        6.42929033936078       -3.71358241627182
C           -7.70098695366014        2.63810493104231        1.33495961852466
C           -9.03312505918263        3.01996468730684        1.45084519176854
C           -9.96543291834176        2.07449180489870        1.82265762398486
C           -9.58536930914070        0.76452403864119        2.07463861765481
C           -8.26141730756312        0.37836652332101        1.95373653558318
C           -7.32238261273039        1.31847545361774        1.58362522773916
C           -5.81782809738000        1.18068889176628        1.33804543769629
C           -5.62052283293973        0.20156751947193        0.16380348437296
C           -5.15082304327613        0.72989215061887        2.64987926937584
C           -0.82059894410527       -0.71397205596796        0.63771481452502
C           -1.17909194536879       -1.39159151126110        1.96738925888187
C           -1.50285576292369       -1.41914739280421       -0.54337543530642
C            0.69216981696061       -0.68785060564275        0.44143757862215
C            1.59893068399476       -1.71646710030716        0.29391426924398
C            2.93878238720758       -1.41025184219275        0.12694179187148
C            3.36595766482653       -0.09062540860939        0.10805940532438
C            2.46650640378487        0.94386243606626        0.25666630436636
C            1.11948898577230        0.64262548549029        0.42547668555031
H            0.07410684866154        3.52913825997036        0.04902593992923
H            1.16435842047261        3.07100960533974        1.36002307932298
H           -0.55506729565481        3.20658338436714        1.68340468978885
H           -3.23640781895545        0.50100551923791        0.92817120354833
H           -2.09909072710719        3.22631011895231        0.22015274671417
H           -4.18128442158972        4.18259068687255        0.38553246107686
H           -5.80120442547866        5.34067801736221        0.97952790715022
H           -7.53535534437547        5.23623273839822        0.97595361523046
H           -7.50354006538530        4.35241992736654       -1.37335421503233
H           -5.76831573710424        4.41089532716811       -1.38497162309860
H           -5.86921598340603        6.92266613865612       -1.01570137371865
H           -7.60760791637117        6.84479584324513       -1.09059571838047
H           -4.50678359538017        6.57037486891852       -3.01397895013482
H           -4.39036470977141        6.69673216632901       -5.46546183377756
H           -6.45546736320317        6.64945528595435       -6.79617220685184
H           -8.63315050558103        6.46947777705608       -5.67223529052454
H           -8.74272367880490        6.34306354258419       -3.22012937346099
H           -9.32625289387157        4.03410827546839        1.24923374506347
H          -11.00115189705975        2.35596494949853        1.91734029422929
H          -10.32765433184907        0.03901491711284        2.36304270641953
H           -7.96036717265193       -0.63758723471896        2.13856605366813
H           -6.33096455989077        0.42880521075823       -0.63036027578469
H           -5.79376379022989       -0.82644911966813        0.47867676418592
H           -4.63168125979020        0.26583324743497       -0.28042139560884
H           -5.49032598499525        1.35742825685264        3.47303908794736
H           -4.06799710822998        0.80663087877296        2.62141463728639
H           -5.41499227707741       -0.29955090642981        2.88692389918708
H           -2.25471044278927       -1.37904497422863        2.13589624421476
H           -0.70011106347097       -0.87755459683595        2.79945070924643
H           -0.84818418724268       -2.42901837100436        1.97541045844323
H           -2.58571624571057       -1.41300959554555       -0.43150335640294
H           -1.17810376028102       -2.45589731765568       -0.61675142458711
H           -1.25653752448900       -0.92066280047601       -1.47977356153508
H            1.26056583522076       -2.73736093328114        0.30855801277601
H            3.65595078395980       -2.20528086867155        0.00802728973090
H            4.41221349279205        0.12872150672122       -0.02649557710342
H            2.79096636642474        1.96836403610166        0.22924432838766
