38
 energy: -7.072115778245 gnorm: 0.000640495612 xtb: 6.5.0 (97a52f5)
C            0.90420137423374        0.09576564490519        0.04247825676667
C            2.39043811375330        0.05604080640369       -0.10987901011486
O            2.97730920993809        1.03092698813334       -0.52826063614524
C            3.11833328306384       -1.18427988290427        0.26403827537862
C            2.70457082073185       -2.42944111400257       -0.17864855377870
C            3.39487313121566       -3.59529873943965        0.19651883944750
C            4.50264971833565       -3.53714711932959        0.99711915522886
C            4.99312626344011       -2.29726071699493        1.44242033780013
C            6.16256461833609       -2.20294424859849        2.27593125111273
N            6.97322732973097       -3.32866701340038        2.55158686051798
C            7.39962257898241       -4.26119290390067        1.50055942507325
C            7.80765545161906       -3.37728330484549        3.75161514247447
C            6.50982881658533       -0.96004803102962        2.78674143751672
C            5.79973056852465        0.18459801377523        2.45808124419116
C            4.72209608178878        0.11565864521120        1.62026333341009
C            4.28207292583338       -1.11383417252060        1.09656073358960
C            2.76035594143877       -4.81517731428118       -0.41738221103892
C            1.67169075698305       -4.29655683980916       -1.38258074397582
C            1.56097536439146       -2.78143566038390       -1.09701921559204
H            0.59141985280725        1.06782703223812        0.42170022074781
H            0.55701182876506       -0.66349899082363        0.74280325294696
H            0.41246742656312       -0.06139045342055       -0.91664430432453
H            4.97607867124885       -4.44943486587983        1.30380740275097
H            7.03861651036705       -3.93486456644781        0.52718405480279
H            7.02552683921784       -5.26196848261430        1.70784456104246
H            8.48638826122540       -4.30235472249070        1.45641697865228
H            7.28153823838544       -2.93300941917310        4.59428170912527
H            8.73731613323372       -2.83627635516913        3.58645981895233
H            8.04401981478654       -4.40934007289247        4.00441691274088
H            7.37913251189662       -0.87832509944704        3.41461660937167
H            6.11098814448333        1.13762459399297        2.85367264528954
H            4.19218686278163        1.01099677521376        1.34808197474466
H            2.33143291589461       -5.44214312220463        0.37286734733961
H            3.51506821993753       -5.42091848317136       -0.93250727167326
H            0.71474027921671       -4.81371346164328       -1.23866311513472
H            1.96482772081617       -4.47202861491069       -2.42502159234394
H            0.60844431915186       -2.54547822271999       -0.61042746505161
H            1.61099310029466       -2.18446650542503       -2.01494366184203
