96
 energy: -16.275658421489 gnorm: 0.000498466159 xtb: 6.5.0 (97a52f5)
C            0.79432316798930        0.24568457048728       -1.74189591287537
N            2.22678557944083        0.23633191995447       -1.43677041553612
C            2.88041766946939       -0.90582176529984       -0.98023802297974
C            2.18872490721724       -2.10771175715086       -0.87658405387349
C            2.76779931365204       -3.26391194376232       -0.37140290302518
C            4.11366538883431       -3.21112615349411        0.07617569749746
C            4.81640387996017       -1.99598409216766       -0.06153001978820
C            4.24967257157435       -0.86730352044255       -0.58809856632487
C            5.07062203527673        0.42195603806952       -0.71713323610160
C            6.51332685180403        0.11470173893636       -1.17828909344033
C            5.10976572632668        1.12801357456756        0.65061805804707
C            4.41973135942421        1.35831131551719       -1.78245950597380
C            2.91801478963444        1.53070282209678       -1.58191367293886
C            4.71900489043135       -4.37513086860055        0.60565473648761
C            6.10737699832599       -4.36021064327284        1.11527567024020
C            6.45321581887147       -3.50604964140495        2.17155357452564
C            7.71288617305713       -3.51358065542361        2.71330950666589
C            8.67265183892698       -4.37794290750885        2.22379931097745
C            8.36602789989516       -5.22767552391606        1.18775321078620
C            7.10586668430794       -5.22990968543634        0.61420591892009
C            6.84375705357291       -6.17267563172539       -0.50953059794531
O            7.19028751894323       -7.33334259837310       -0.38630843389985
O            6.23702456328060       -5.68111597258570       -1.62423628247648
C            3.93601593631430       -5.56147165010432        0.66236663229388
C            4.43787209121855       -6.73872284452289        1.20471827432972
C            3.69060732760583       -7.90842292589107        1.27916696444887
C            2.36047977247933       -7.90334547235968        0.76168864029795
C            1.84810344622802       -6.72180046282702        0.23867778926471
C            2.59198251491918       -5.54897625296366        0.18220782880551
O            2.01082921995905       -4.41558231062730       -0.32734660525424
O            1.57597923878804       -9.02870440520011        0.75768133998962
C            2.10906976199505      -10.19136132984018        1.27288300685745
C            1.32472497790419      -11.33687662579180        1.27464742248627
C            1.77231611542909      -12.55108768345882        1.78297709615012
C            3.08497968430692      -12.62248728727380        2.33003893171417
C            3.85933872291863      -11.49447217605507        2.34106550398055
C            3.42233936165978      -10.26434779830254        1.80671241073853
C            4.23523756308474       -9.10652933840814        1.81942556512032
C            5.62246540221244       -9.14125815723593        2.33095099465520
C            6.56330845354412       -9.99537482223372        1.73915921026509
C            7.87579946827963       -9.99687247378381        2.13618996198784
C            8.29871425014848       -9.14293472389571        3.13615601836262
C            7.40042681123847       -8.29510311489583        3.73922130604250
C            6.06706848823396       -8.28453333320680        3.36654538134168
C            5.14428124327740       -7.34670393484134        4.06633097702332
O            5.48091926555842       -6.18285759390814        4.18698710243854
O            3.97232611944218       -7.84688592824329        4.54465992668477
C            3.59038726926800      -13.93038321184138        2.94836155807279
C            5.11973412629492      -14.07990513062080        2.78642994594576
C            3.23367030925948      -13.94062207048312        4.44613502821450
C            2.91012892950922      -15.13434183640483        2.22674625095835
C            1.39002433613779      -15.01240225000989        2.17011968308315
N            0.93700061526504      -13.66631476771873        1.76620918069371
C           -0.45526591617392      -13.58711761234377        1.31942154445907
H            0.22981614127470       -0.11437882796690       -0.88474425270503
H            0.59415460089275       -0.38739934990363       -2.60332049312053
H            0.45538745813076        1.25369293975962       -1.96906616574233
H            1.16675090845929       -2.17026223393975       -1.19635540603057
H            5.83770704982383       -1.96535359590555        0.26527415951301
H            7.07340860471312       -0.42663366364137       -0.41837120710963
H            7.05667714873855        1.03582985843241       -1.38504153884465
H            6.50874220968769       -0.48393742093825       -2.08813037694407
H            5.60416082598370        0.50432051885466        1.39385089618444
H            4.10295537197550        1.33372562193507        1.01025206161117
H            5.65018134395910        2.07165264232867        0.59004800298889
H            4.60325880856920        0.93747870781981       -2.77670790039755
H            4.92582148025697        2.33035344757208       -1.76958103283306
H            2.47569874126018        2.06633906144933       -2.42851656010862
H            2.70718138632675        2.12842217956494       -0.69081586309919
H            5.69396762784406       -2.86528189856115        2.58644020457059
H            7.95029705228580       -2.85592481152425        3.53373938015180
H            9.65971188369609       -4.38901615973196        2.65681107484589
H            9.10750787513851       -5.90878706297540        0.80442157022816
H            6.06259981021778       -4.72458012770300       -1.54242051759805
H            5.44415467845321       -6.74510157340184        1.57865480330775
H            0.84260137275886       -6.71535792613899       -0.13697188055701
H            0.34027551203529      -11.25826245196781        0.85617768987458
H            4.83459739206835      -11.53053705961800        2.78637314328783
H            6.24711784377333      -10.62730117731768        0.92686941840882
H            8.58326877650769      -10.65266322082272        1.65517687147695
H            9.33291731201023       -9.13840873684973        3.43998103226008
H            7.72349219635313       -7.62194820621067        4.51580524120028
H            3.89911126213405       -8.80534023915740        4.37746355548714
H            5.66015568562805      -13.34977381518683        3.38604282217722
H            5.41338895327031      -13.95460939501047        1.74521195856309
H            5.44692119289336      -15.06709830556894        3.11006272180948
H            3.72581810741999      -13.11936554755924        4.96537263360634
H            3.54341205218988      -14.87217937729262        4.91768776692430
H            2.16058175905572      -13.82589904346575        4.58986711980702
H            3.30736814221218      -15.20081160979781        1.20834619341924
H            3.20267907526860      -16.06565141246807        2.72494286746070
H            0.94383889556903      -15.24147098818773        3.14210982161663
H            0.97467199966469      -15.73525602899189        1.45968113646971
H           -0.97329199692568      -14.52391385737914        1.51143435870472
H           -0.49084832259651      -13.38509109230784        0.25125094876283
H           -0.97500580535231      -12.79825785384020        1.85841390201403
