33
 energy: -5.265122223005 gnorm: 0.000750789400 xtb: 6.5.0 (97a52f5)
C            1.30617145769325        0.61636651916744        0.49545613160002
N            2.40800293514653        0.01131764002178       -0.33763827880996
C            3.42108428108407        1.04762015440946       -0.77427784070593
C            2.97718997573336       -1.21716643295063        0.21642788203827
C            2.64755141396905       -2.45042921111513       -0.39976083796343
C            1.54130646002400       -2.59892782761449       -1.26546448903202
C            1.26641523053130       -3.79723689544631       -1.87576742142629
C            2.07166959167408       -4.90652625572922       -1.65121173941421
C            3.14163192417972       -4.82038375888516       -0.79922848042690
C            3.44919671049429       -3.61064479733890       -0.14595605198566
C            4.51364097309051       -3.52861126485037        0.75336812363821
C            4.78380217959572       -2.34969670182894        1.45124727312237
C            5.82105323816622       -2.29775728278414        2.40334717220559
C            6.05626943223699       -1.15733435890304        3.12542333226070
C            5.26237656691934       -0.03472164206040        2.93306859553419
C            4.25102550601855       -0.04512828610553        2.00519330509679
C            3.98617331121709       -1.18196002113225        1.21109456963970
H            0.87003954474289        1.48370987710897        0.00275030202367
H            1.68163405877697        0.93600287226220        1.46222686474706
H            0.51884539885637       -0.11363325798319        0.67505498492658
H            1.93125176791255       -0.19821394169222       -1.24730960031660
H            3.93469329589817        1.48588304302137        0.07473029501923
H            2.94339332120222        1.86094098216991       -1.31844748277828
H            4.17265208690229        0.59440856285840       -1.41853187167643
H            0.87150894926174       -1.77451656145701       -1.42496814680336
H            0.41513004543941       -3.88166936015236       -2.53099714012918
H            1.84552889054064       -5.83990535089050       -2.13985371067213
H            3.75543990269818       -5.68465040039130       -0.61454752072835
H            5.11485404402815       -4.39967317080747        0.93858865607322
H            6.42522236542373       -3.17317959706676        2.56596223415992
H            6.84974506532994       -1.13445190457446        3.85408522094503
H            5.44118609128245        0.85069059691425        3.52075868419423
H            3.63086398392931        0.82473803382593        1.91190698564548
