74
 energy: -14.609307383738 gnorm: 0.000386527012 xtb: 6.5.0 (97a52f5)
C            1.30417874042297        0.58738620793264        1.02595743342065
P            2.97373687389580        0.19882827790705        0.27727794303875
C            3.94085768781361       -0.57567216388380        1.61131110467230
C            4.62838932083795       -1.78912224224799        1.48327416944856
C            4.79433035702209       -2.47791457969044        0.24811848062683
C            5.44818485331893       -3.66264002190027        0.17452232056695
C            5.99843095804261       -4.24808600762941        1.32737088894881
C            5.90218721025386       -3.62034541830488        2.52418515662270
C            5.23653730583593       -2.36950248935449        2.64150575965440
C            5.17996231503228       -1.70018659008179        3.85856605700866
C            4.57254926967003       -0.45566681862367        3.96947882531706
C            4.56253996243719        0.25892491049195        5.19848091106855
C            4.01248508318724        1.49510376250230        5.28050121305981
C            3.44899301806090        2.10033268702621        4.14337825008802
C            3.42434539049968        1.44662708471364        2.95695361885236
C            3.95650814404885        0.12997960991133        2.81848450879971
C            2.65419151901339       -0.92320611749387       -1.12140259979717
C            1.80886725842317       -2.00321982973255       -0.84872557637005
C            1.38767620427736       -2.34685152577246        0.47018047292706
C            0.55970072779224       -3.39482374894621        0.69871250705446
C            0.09508747671341       -4.18406656448532       -0.36839691347071
C            0.49300263299308       -3.92475848379517       -1.63798201752458
C            1.37555640225648       -2.84656866909276       -1.92021097981214
C            1.83888160019549       -2.60592095743954       -3.20783657767007
C            2.75032942062163       -1.58910704899659       -3.46824841490155
C            3.26408299763475       -1.38256258364091       -4.77783781135830
C            4.19115147876688       -0.42430169590576       -5.01897582028184
C            4.67052218467383        0.37724333344319       -3.96909778287137
C            4.19381516321016        0.22125366903330       -2.71023685157095
C            3.19183673571898       -0.74259323639716       -2.40221256009004
C            3.66335247745521        1.79576115760442       -0.26094499659216
C            4.95765365667830        2.23348228662418        0.04707612990520
C            5.94369748637231        1.41150311797062        0.66345948104660
C            7.18043838686551        1.88103051027994        0.95746638703843
C            7.53346800460715        3.20604024450676        0.65000918797362
C            6.64663423525356        4.02346032647730        0.03258744946075
C            5.34430234253232        3.56503589600306       -0.30669356708237
C            4.45092968167337        4.38395314652706       -0.98788264093743
C            3.19819396292238        3.92177888952725       -1.37216400620144
C            2.30373066684984        4.73455963702399       -2.12086204888549
C            1.10806838922621        4.25125802774104       -2.53849720077926
C            0.73472163873746        2.92691238951965       -2.24895346121745
C            1.55097168375998        2.12514306681023       -1.52328006759474
C            2.80325464426441        2.59152483180260       -1.02360025375116
H            1.25347618007174        0.23816328113237        2.05341926183101
H            0.50731585617392        0.10672036913170        0.46561038752130
H            1.12012067920987        1.65798932513157        1.02347924733423
H            4.41990063599831       -2.03279081166024       -0.65109858988897
H            5.55323279542451       -4.16133307397110       -0.77489224163809
H            6.50779956941269       -5.19454829312336        1.25245306676570
H            6.33681510694912       -4.06113448828528        3.40447815064712
H            5.64197121514766       -2.13962240739748        4.72364809599249
H            5.00918347247092       -0.19494304652822        6.06594998825508
H            4.01765310095686        2.02710245159549        6.21740168779594
H            3.04587517350719        3.09683190573730        4.21774347501153
H            3.04834553543475        1.94956716036302        2.08664162472635
H            1.78566735930746       -1.79681981866952        1.30170222700074
H            0.26197295891153       -3.63649081913539        1.70565233587666
H           -0.56882401391825       -5.00882776402108       -0.16883717285386
H            0.15158804592174       -4.54171914757987       -2.45089430172236
H            1.51270331961525       -3.23973009939471       -4.01207329266783
H            2.90908153513145       -2.00739453837937       -5.57885071522238
H            4.57457292034725       -0.28086034422928       -6.01559728858037
H            5.42726023521111        1.11753641748677       -4.17022663669663
H            4.60548584362240        0.81492886630739       -1.91951630723775
H            5.71149499555522        0.38651958919022        0.87085995056645
H            7.90401810230113        1.23497720691162        1.42670223888028
H            8.51852500211982        3.56541398450140        0.89775586678741
H            6.92258970717900        5.03341449227186       -0.21628225536409
H            4.74816282231597        5.38225470065032       -1.25236406374047
H            2.59538906078912        5.74242682524654       -2.35986015857310
H            0.44266675176474        4.87732956222619       -3.10959104677939
H           -0.20249267771812        2.54607094309954       -2.61990283061509
H            1.27969316019312        1.09827129422162       -1.36825681081029
