41
 energy: -7.148486745534 gnorm: 0.000550162354 xtb: 6.5.0 (97a52f5)
C            1.33434657562792        0.00695438001958       -0.67506894824525
P            3.04357488215352        0.56303991408823       -0.31220737074789
C            3.37956748247011        0.66598622022584        1.45360254377492
C            2.59787163185134        1.46978855318703        2.24960613701160
C            2.85673881890463        1.55223261498793        3.60481711232142
C            3.89641401319299        0.82966403944265        4.15232188634625
C            4.67977320825955        0.02720562938996        3.34933753180518
C            4.41992255030977       -0.05246271620129        1.99478831646672
C            4.27124636086262       -0.44958402521690       -1.17833998215237
C            4.91653287097118        0.40169068783948       -2.04117745201444
C            4.49371546820365        1.78613811958635       -2.05235932248657
C            5.02948906067466        2.81326331423166       -2.85696419345793
C            4.52402562957447        4.08722195899446       -2.75112839448557
C            3.49489899670522        4.37376346072269       -1.86226137626579
C            2.95459763292627        3.37697928689990       -1.06071811220512
C            3.44886094011358        2.10506464141544       -1.15861909170791
S            6.18884797371412       -0.50397935468865       -2.96989422501124
O            7.55313201943108       -0.00853619057283       -2.57413026867141
O            5.78946722557058       -0.60875558732900       -4.41670976391960
C            5.77054796404961       -2.02543098685898       -2.08861950935277
C            6.33841109363670       -3.26405430575977       -2.21494026692180
C            5.86447991525173       -4.30711136653475       -1.43210434540768
C            4.82657711316373       -4.09946108044026       -0.53164351883617
C            4.25065011232870       -2.85813589907029       -0.39824471309530
C            4.72437133509043       -1.79438456841907       -1.18557578168692
H            1.16116771589095       -0.97043913081176       -0.23495358286856
H            1.18999148028909       -0.05798904231225       -1.74946022257064
H            0.61671739497788        0.71096896528665       -0.26483482261339
H            1.78784025591714        2.03015880231398        1.81113967179195
H            2.24585610835207        2.18052391409052        4.23239063556505
H            4.09718014832987        0.89227944893070        5.20957620135230
H            5.49271761824742       -0.53690879922140        3.77669112912837
H            5.02659791891695       -0.67351771569940        1.35650471127388
H            5.82758967235827        2.58603002191940       -3.54146809845942
H            4.93143106596566        4.87441688071405       -3.36453672357208
H            3.11280701021961        5.37895491253908       -1.79317121420834
H            2.15881899598069        3.59292835953155       -0.36907107916057
H            7.14280158986600       -3.41603161785670       -2.91464365352220
H            6.30588104077801       -5.28618384419348       -1.52382371060170
H            4.47068151918717       -4.92024917021779        0.06924097607798
H            3.44909958965721       -2.68959872496940        0.29864289134448
