39
 energy: -6.742809421175 gnorm: 0.000835350653 xtb: 6.5.0 (97a52f5)
C            0.72818469044904        0.09718467875589        0.34795748776262
P            2.55899757567661        0.02730762940815        0.36582826375191
C            3.23895483976884        0.07090216136815        2.03123819806882
C            2.93991547574808        1.12636908483838        2.86050574663130
C            3.46997700508746        1.16688173292181        4.13661782288305
C            4.29627364366021        0.15109351428744        4.57136403188610
C            4.59494552128526       -0.90439947988666        3.73474209051484
C            4.06422435100820       -0.94260969495149        2.45957171459352
C            3.29828322921098        1.29411180262161       -0.68307653836597
C            3.27789938185462        2.66203145563750       -0.62757360454640
C            3.96023190141660        3.38329145763173       -1.59475797863543
C            4.65392044059072        2.73008622271366       -2.60313752993413
C            4.67873494950296        1.35535129347293       -2.66457695847228
C            3.99284509294534        0.60902246722101       -1.69423821771315
C            3.92277567826843       -0.85332952443865       -1.62043807983764
S            4.60628880983347       -2.12159220260429       -2.60112115789710
C            3.90686111341590       -3.37453700483565       -1.59974693313603
C            4.00269837123517       -4.74856759988898       -1.72562124960256
C            3.36366531005394       -5.55794342580218       -0.80533268763745
C            2.62779373081143       -5.00767035847454        0.24097926936114
C            2.51726764826714       -3.64403769835332        0.38441900979156
C            3.15990496719953       -2.80490200291796       -0.54167445101032
C            3.17747206260946       -1.38925049395553       -0.57394213550019
H            0.38592475390852        1.02850738535290        0.78842506589440
H            0.32154297221364       -0.73380383233049        0.91608770874931
H            0.36871674988323        0.03682738023900       -0.67480637706877
H            2.29502351145147        1.91499657484306        2.50804759504298
H            3.23839934475626        1.99167962427781        4.78998770396098
H            4.70966825573942        0.18261330912184        5.56603410662531
H            5.24097661607379       -1.69713996665697        4.07378419533093
H            4.28994304761981       -1.75980025594749        1.79472588124186
H            2.73763126439864        3.15969664275332        0.15882324016604
H            3.95167799986362        4.46000010201030       -1.56195991401087
H            5.17943251964774        3.30595799152050       -3.34680914588685
H            5.21504241817591        0.84323564736764       -3.44331625971397
H            4.57272346340372       -5.16899799849118       -2.53543555610178
H            3.43608516624075       -6.62880975758430       -0.89864647020829
H            2.13877841234777       -5.65864119418079        0.94637012811989
H            1.94978771437668       -3.21252566706339        1.18919198490228
