27
 energy: -4.956706879824 gnorm: 0.000334322218 xtb: 6.5.0 (97a52f5)
C            0.92049197651287        0.59797727774413        0.08849964435076
Si           2.68465082058818       -0.03061803470629       -0.00322434997349
C            3.77610670777518        0.98649747759197       -1.14031125687588
C            3.43755535476916       -0.28247357566535        1.67951251695117
C            3.74051282824199       -1.56057135179043        2.04073184393446
C            4.30570081335166       -1.84194131645033        3.29295339726881
C            4.56210322960035       -0.83483891081709        4.17231547140665
C            4.26381428797222        0.50630942331846        3.83746879114436
C            4.52087016059324        1.57231646878129        4.73125399746152
C            4.22437051830115        2.85616282865867        4.38675610654300
C            3.65811085781068        3.14081072678531        3.13752487606263
C            3.39831554974147        2.13801615943890        2.25299715456653
C            3.69174466595066        0.79060362242999        2.57162023213966
H            0.47277089261848        0.60735728645503       -0.90185609990674
H            0.89352360712184        1.60690388225059        0.48990501168531
H            0.32985256211589       -0.04699127008688        0.73381257853383
H            2.60739468573203       -1.36016349164288       -0.60387614526233
H            3.70448403415333        2.04278265435775       -0.89666079874233
H            3.47226492144910        0.85027390143158       -2.17512852918553
H            4.81228316284379        0.67498033140299       -1.03595979889676
H            3.54069892967035       -2.36420481391606        1.35126407225907
H            4.53632278218857       -2.86128238078713        3.55690346390150
H            4.99611836488918       -1.04831563349631        5.13415873973453
H            4.95623667150861        1.35333423945843        5.69126297428730
H            4.42553536231751        3.65986317022782        5.07643003336530
H            3.42806702201446        4.16138556861956        2.87749641280505
H            2.96464923005225        2.36404576035580        1.29566966037729
