48
 energy: -10.138311391352 gnorm: 0.000502028192 xtb: 6.5.0 (97a52f5)
C            0.63083083751046       -0.41612272820041       -0.09293448506839
Si           2.48852783813183       -0.20919649998234        0.00057324951462
C            3.01180526103949        0.86574988747867       -1.43983658159233
C            2.87362662870846        0.72634725756678        1.57549912229749
C            3.31686233725888       -1.79363648945789       -0.03553605340039
C            3.85407565057773       -2.88129633650878       -0.06280366462075
C            4.45800928729588       -4.10468778878582       -0.09017871033938
C            4.99873237217533       -5.19736181632255       -0.11318624841188
C            5.61808437395426       -6.46342314188145       -0.13662511842480
C            6.98252214952983       -6.55055153782367       -0.28723513446498
C            7.63146174633157       -7.77651772972230       -0.31398800507006
C            6.94118467952057       -8.97142237658474       -0.19085769190304
C            7.62256603344139      -10.26641261737779       -0.21944304475120
C            8.99465197917918      -10.37428416964241       -0.37924372059700
C            9.63399181742059      -11.60997106316371       -0.40323494169605
C            8.91782278661015      -12.76244395469400       -0.26872176287103
C            7.51818642981671      -12.71888863842222       -0.10495504252559
C            6.76268597574303      -13.90134285943205        0.03191725809210
C            5.40928569480190      -13.84259810840315        0.18563613392569
C            4.75395280424350      -12.61502024447176        0.20942779350248
C            5.44108969237405      -11.41919612492555        0.08087636162095
C            4.76019985594449      -10.12214382387321        0.10404687950472
C            3.38727627907336      -10.01841989504973        0.25394020325244
C            2.74660687755981       -8.78511282018743        0.27551795439902
C            3.46386086465157       -7.63231569006365        0.14931787838688
C            4.86375929011819       -7.66677094814281       -0.00586101985215
C            5.52506830801093       -8.92434957189682       -0.03098910478951
C            6.85777683418354      -11.46290464135808       -0.08008992366640
H            0.14243970259821        0.55415234357189       -0.08199207784542
H            0.27891484512540       -0.99639076687912        0.75536746423331
H            0.36157917468570       -0.93516641985628       -1.00851192823863
H            2.49953880281825        1.82287065465296       -1.40025367126721
H            2.76796080233806        0.37498229939976       -2.37787654012249
H            4.08364864412664        1.03889812249201       -1.40350859099693
H            2.35398321084780        1.68032002621572        1.58237727080706
H            3.94229794764566        0.90762744253620        1.64806526857307
H            2.55678696509336        0.14726220463867        2.43833609154942
H            7.55119057464586       -5.64109022985400       -0.38544055438997
H            8.69921863418786       -7.78484806949208       -0.43235976810033
H            9.59337845820891       -9.48907455379709       -0.48999260853308
H           10.70365123899220      -11.65493620861880       -0.52933960145585
H            9.41328302558497      -13.71800699611327       -0.28735129163543
H            7.26859306044723      -14.85140023906125        0.01298969669478
H            4.84089074405713      -14.75275052682870        0.28887323735108
H            3.68653145016223      -12.60997356669463        0.33140416907966
H            2.78974289748411      -10.90543175330045        0.35649828044556
H            1.67581596787559       -8.74139965005758        0.39231501525710
H            2.96393916795486       -6.67958964140077        0.16616755808490
