73
 energy: -12.550550976088 gnorm: 0.000692293501 xtb: 6.5.0 (97a52f5)
C            1.41272446812891       -0.68931277324191        0.35757033205095
Si           3.27946314622531       -0.64852462903546        0.48958936512446
C            3.87119368660412       -2.41000028409346        0.71618849535324
C            3.94949201039130       -0.02817644624483       -1.14450987022121
C            3.80666303665862        0.39640036878068        1.84123978700838
C            4.14641763581330        1.12937853465500        2.75151238677362
C            4.53618837557463        1.98573277574457        3.80405454349780
C            4.98247343257297        3.28051583987265        3.46743219076261
C            5.39852782346078        4.39706656856515        3.21986769262220
Si           6.10759363425966        6.03557483534549        3.13366122876074
C            4.83737056365122        7.34949687202529        3.53782255523929
C            7.52021927285761        6.21079110301051        4.35007454199174
C            6.78299517822599        6.39919917899774        1.42605788329319
C            4.48742750464560        1.51913980310296        5.07468683116534
C            4.82136950705705        2.22872498989440        6.28066181892162
C            5.08364096180013        3.56748212306932        6.43870539000562
C            5.37048337993741        3.94619619505808        7.76235522060028
C            5.34479089202429        2.90925335573406        8.66191448226920
C            5.60679318428211        2.94595877426842       10.07523714315586
C            5.79242462007808        4.03970444149328       10.85218083547735
C            5.71079182541129        5.36432990496560       10.37449082215806
C            5.61056073141190        6.50003277217346        9.94901407420341
Si           5.37178482530008        8.09712226462235        9.18225970500751
C            3.89923085035089        8.98816467963139        9.91824647194590
C            6.87164949358452        9.19494115070279        9.40282548205353
C            5.06088831519868        7.92396604703231        7.34502636141455
C            6.06765498691783        3.85243070462163       12.22417322596736
C            6.31734334759753        3.68359892503104       13.40341167650231
Si           6.71593381339513        3.41726713927369       15.12573931612786
C            8.04598864047250        2.11373883326077       15.31658588084311
C            7.34004435864828        4.98755352434447       15.93148619486566
C            5.21522003154657        2.84221071800790       16.08572384053999
S            4.94012795481483        1.43138205168905        7.82785074704224
H            1.10785868724093       -1.31594328798733       -0.47603694851512
H            1.02992242172223        0.31549770491262        0.20112634184664
H            0.98474752459625       -1.08878100889842        1.27292393090773
H            3.53660311010097       -3.02877257579343       -0.11192580494976
H            3.47576304064329       -2.81788302704513        1.64243009019849
H            4.95670734551019       -2.43437439603087        0.75770409581574
H            3.61890535354222       -0.67104605585143       -1.95562846561104
H            5.03576778424758       -0.02076866198971       -1.12148218076279
H            3.59589806910916        0.98238922492696       -1.32995614236818
H            4.40312107840339        7.15650618070557        4.51482476837425
H            4.04421276670267        7.33992307945294        2.79487324471152
H            5.30084995629796        8.33229344526002        3.54586695975845
H            7.17818980432495        5.98144655542074        5.35540705319978
H            7.90943424758414        7.22519789482705        4.33327978884774
H            8.31953375253017        5.52247056082941        4.08892833108853
H            5.98646355189395        6.33395879494393        0.68976320848996
H            7.55534794252290        5.67834127322859        1.17182468419351
H            7.21005036762934        7.39781619707355        1.39546093887231
H            4.16866814862509        0.49926190110777        5.20953680883688
H            5.06611212581831        4.27253333251045        5.62511546547114
H            5.60087713420103        4.96071149364284        8.03991059448361
H            5.65973693240862        1.98636991793269       10.56140598473938
H            4.04647595388453        9.13135720998594       10.98520588957451
H            2.99713789436385        8.40238108604493        9.76421431118053
H            3.77280157703690        9.95898110348420        9.44695987183699
H            7.06612901970594        9.34867812782570       10.46078345157225
H            6.70419106145373       10.15971057663710        8.93187090972121
H            7.74239121225605        8.72855613387878        8.95001195135358
H            4.19219540457263        7.29420073204110        7.17365775081950
H            5.92351830514237        7.47020399578931        6.86587818007520
H            4.88322357881783        8.89827285262522        6.89831566778244
H            8.94764424597692        2.42498755867909       14.79615857544104
H            7.70544721401359        1.17197331494534       14.89493742738623
H            8.27978539140126        1.96489564419503       16.36718941226468
H            8.23588467293913        5.33481092328368       15.42402656120810
H            7.57572322976404        4.80583880790758       16.97648747969532
H            6.58055714101140        5.76231562902675       15.87164139402504
H            4.84009571468190        1.91321294776018       15.66509083151169
H            4.43128230020817        3.59273497207270       16.03266130654864
H            5.47497344878526        2.67723949136545       17.12778961169527
