85
 energy: -17.706754110531 gnorm: 0.000507467103 xtb: 6.5.0 (97a52f5)
C            0.77123667577140       -1.46751364515912       -0.43116185365226
Si           2.64117232718770       -1.53276850025449       -0.48164662721182
C            3.13673296639927       -2.57392583152604       -1.95610679656458
C            3.27294339891510        0.20589886128797       -0.76765994259019
C            3.30371661336926       -2.22708994222315        1.02370286057531
C            3.79363413166266       -2.81223453458583        1.96260370886818
Si           4.55877992168298       -3.83333024402121        3.22083675947014
C            6.02409027651327       -2.86061292756247        3.87500740323523
C            7.29896432747374       -3.42936097084196        4.00049434785442
C            7.52956222636448       -4.83420922737208        3.96175762203843
C            8.77808106879478       -5.35141944078345        4.07503693823319
C            9.89013049069026       -4.50590527833424        4.24312318512260
C            9.72382169883195       -3.16171055313081        4.31408843204863
C            8.42907641370135       -2.57998487460095        4.21405927896267
C            8.24330450539918       -1.20637827427614        4.33456063881307
C            6.97202444579410       -0.64373165695543        4.28987623591766
C            6.77142151854100        0.75457597198568        4.46145470872444
C            5.52244168861687        1.28408449062962        4.45884111189791
C            4.39764623332383        0.45397748359239        4.29455343784484
C            4.54730874709972       -0.88225450107758        4.11637825539839
C            5.83762610021535       -1.48717129090257        4.07990639080343
C            3.23208767925539       -4.14018970750743        4.51314497058996
C            3.44946871351853       -3.92576941193689        5.88127184108558
C            4.74702488942178       -3.77117430378943        6.44764765323588
C            4.92084602444681       -3.55201578442858        7.77466728578548
C            3.81311588605366       -3.48017169503906        8.63922071200432
C            2.55672379119845       -3.64920940407266        8.15724359407041
C            2.33238958571316       -3.89264091430877        6.77332782773433
C            1.05100464692455       -4.11344813514891        6.27851663546092
C            0.83607418108067       -4.40355835829272        4.93539402808511
C           -0.46682441015516       -4.67920385653950        4.43389944141454
C           -0.65710755690918       -5.00518155859768        3.13089173402184
C            0.43775974415230       -5.08551109081564        2.25033825612500
C            1.69358967128589       -4.81845684322234        2.68713079079818
C            1.94806232813234       -4.44162381580107        4.03854516430220
C            5.07918728821457       -5.39482767722108        2.31812515552242
C            4.73292440137265       -6.67369556350383        2.77540230627295
C            4.28040401589105       -6.92812772795872        4.10156983475042
C            3.93988708021196       -8.17656756352029        4.50735991753334
C            4.03276436001296       -9.26683318126062        3.62271547789756
C            4.48443441110106       -9.08474478315062        2.35689491017738
C            4.86463456165113       -7.79334010254393        1.89601659067505
C            5.37295048578158       -7.60463234601831        0.61468249072695
C            5.79225740255392       -6.35100353809788        0.18203631152861
C            6.35783799878070       -6.16112688190060       -1.10980058665822
C            6.80341955996284       -4.94148499722374       -1.50245241212678
C            6.72253098745973       -3.83938717549324       -0.63099922318961
C            6.17989025803764       -3.97690538439471        0.60422728708028
C            5.66783534337968       -5.22813047162089        1.05710732032740
H            0.38407934608483       -1.04491026318259       -1.35404918126902
H            0.44386047735549       -0.85243982838266        0.40237719607548
H            0.36907568662459       -2.46894422184300       -0.30647589291857
H            2.74573086338729       -2.14283820444252       -2.87340884525331
H            2.74506280479914       -3.58117103825374       -1.84539971624853
H            4.21953959738513       -2.62624452323717       -2.02574900939889
H            2.87281034109638        0.60396452135398       -1.69586817375969
H            4.35779082562239        0.20245319444256       -0.82545604783370
H            2.96769552655856        0.85042157413034        0.05185215020260
H            6.69047581272091       -5.49596607281072        3.86274941076501
H            8.92374312698706       -6.41890423581422        4.03940208088601
H           10.87616738478978       -4.93357359055222        4.32449269439369
H           10.57310448678166       -2.51551929662954        4.45603806472175
H            9.09556148752576       -0.57096082483664        4.49497496436344
H            7.63071729493460        1.38827226073490        4.59961401312371
H            5.38555716785477        2.34476084246939        4.59324157123558
H            3.41095269038775        0.88738123786666        4.31588843168323
H            3.67958845257114       -1.51056376542866        4.02532016279993
H            5.60558149186402       -3.85341759072191        5.80962002483604
H            5.91482753481557       -3.43469883527278        8.17497548435540
H            3.96918760533703       -3.30119633660630        9.69060176945919
H            1.70988669626364       -3.60965306504026        8.82085525725804
H            0.21386425393146       -4.08808824388258        6.95261149444862
H           -1.30313061725438       -4.63069885245812        5.10998598738952
H           -1.64931680583878       -5.21521413344411        2.76589460146665
H            0.27314636357975       -5.36757354084502        1.22316146107039
H            2.52511847802203       -4.91560999260267        2.01280017118106
H            4.22859291460483       -6.11307697662405        4.79795007823904
H            3.59633595052745       -8.33975965562204        5.51595432019511
H            3.75137198709084      -10.25116392226415        3.95992764917424
H            4.56784495613500       -9.92072638755890        1.68371954162462
H            5.47090119490980       -8.44910746823227       -0.04337352854685
H            6.43295159887949       -7.00652049300819       -1.77202019047658
H            7.23205803284806       -4.81308012132219       -2.48302146379324
H            7.10016130458926       -2.88164648457662       -0.95018557599660
H            6.15052459260431       -3.13505850279606        1.27227763269420
