60
 energy: -11.997159804071 gnorm: 0.000793071884 xtb: 6.5.0 (97a52f5)
C            0.88074704707474       -0.23717674293832       -0.07596436539400
Si           2.75261074612481       -0.21732579968424       -0.07764888666517
C            3.30870836922835        1.24495667180415        0.95051342513145
C            3.34216082157134       -1.77595966597443        0.77604310334306
C            3.38854006915101       -0.10326275564748       -1.74285096333066
C            3.80265899314724       -0.02299961744883       -2.88218876207473
C            4.28493187230126        0.06453607222262       -4.20292939948571
C            4.41391877755538        1.29010101904743       -4.86138671888706
C            4.10541898064962        2.64826211321760       -4.36961899142055
O            3.67708628256785        2.96919804525365       -3.28235137600341
C            4.42575558314637        3.55636577163313       -5.48699396012799
C            4.31940429279719        4.93133883633201       -5.57613477206578
C            4.68691622119412        5.54955716113854       -6.75573777018694
C            5.15405636334632        4.80612841079664       -7.82949112525439
C            5.26060079655804        3.43225803171942       -7.74448212573241
C            4.89319491498510        2.80100092768904       -6.56514092665092
C            4.88954364507128        1.38729121088373       -6.18064161532123
C            5.26585718698841        0.25333089184367       -6.91494075512118
C            5.75568972823347        0.34099362806304       -8.23288337120345
C            6.18643816981842        0.41768324496319       -9.36629247121912
Si           6.84483496800747        0.49909156338074      -11.02461945456740
C            6.76742904784085       -1.18017071894130      -11.84833017935060
C            5.87926828514584        1.70140438301845      -12.08631990204855
C            8.63475278537780        1.04811987376710      -11.01860732837585
C            5.13285188436920       -0.97258947588182       -6.25801259797904
C            5.43221579996679       -2.33165610700301       -6.75312951826550
O            5.86252131125369       -2.65066388773811       -7.84020206846517
C            5.09832586184261       -3.24104048325714       -5.64090991730394
C            5.17456244649768       -4.61867201045856       -5.56276365331607
C            4.79322551357134       -5.23835632862474       -4.38827051483440
C            4.34143266291489       -4.49370253405307       -3.30894537728960
C            4.26113985225000       -3.11750493956687       -3.38459406272910
C            4.64109172766367       -2.48470639042542       -4.55909357057841
C            4.65852839842317       -1.06963939452893       -4.93830440937669
H            0.50432193022999       -0.30746672072592        0.94029739980723
H            0.51869587309803       -1.08844497484983       -0.64506773974951
H            0.50083800160179        0.67365176514279       -0.52945740517357
H            2.90820944273958        1.17394544925836        1.95750155939931
H            2.96065997856162        2.16847301730001        0.49715398558578
H            4.39317811334015        1.26927685005735        1.00367065011426
H            2.96285051526598       -1.81471707523053        1.79290590521771
H            4.42763147631536       -1.79554578876845        0.80510236304739
H            2.99076712844677       -2.65108966805615        0.23746512347288
H            3.95498292568558        5.49439100834687       -4.73500810305347
H            4.60887468470628        6.62082494548047       -6.84234543104499
H            5.43650548161203        5.30641835061398       -8.74105333188871
H            5.62048177156879        2.85031012304659       -8.57304553762811
H            5.73573047396851       -1.51308298368375      -11.91334184811041
H            7.33040078599627       -1.90310927102305      -11.26527593505292
H            7.18600046665447       -1.13157842607451      -12.84928549618052
H            4.83426503054396        1.40768759634743      -12.12225379936809
H            6.27588440448889        1.71377521267162      -13.09727095031197
H            5.94700337126061        2.70241011408148      -11.67060593962809
H            9.23351091847388        0.35164908633548      -10.43894575907218
H            8.71968915341963        2.03564820024674      -10.57466066426879
H            9.02173504812020        1.08458018524369      -12.03270759808007
H            5.52595675130357       -5.18281122369676       -6.40863497630573
H            4.84727478580791       -6.31179105825153       -4.31063073977936
H            4.04842798930569       -4.99482513492174       -2.40118737622396
H            3.90831408959161       -2.53535058551128       -2.55322396982591
