80
 energy: -15.424668737369 gnorm: 0.000684239093 xtb: 6.5.0 (97a52f5)
C            1.61561235778076        0.21054099549212       -0.02285184408080
Si           3.46720395048516       -0.00352311785919       -0.19586059307708
C            4.22807620868708        1.70537432134783       -0.26814199061817
C            4.09187431797444       -0.83931726538271        1.35841284738858
C            3.86703120933976       -0.95155528200066       -1.65769449060042
C            4.10982868788899       -1.53283441352074       -2.69791120307682
C            4.38346925415539       -2.16898174602962       -3.92889564314199
C            4.21528754120785       -3.54175241978590       -4.04557774475987
C            4.45569096344899       -4.22461030892848       -5.22971282919590
C            4.26293847957426       -5.62297915664997       -5.27902575874149
C            4.09788639621037       -6.82601234658411       -5.34509485362727
Si           3.84089897384190       -8.59050771347271       -5.47280229400603
C            2.39016572017204       -9.13786355120170       -4.42395753300733
C            3.48689787139211       -9.09691119160589       -7.23992472040245
C            5.34685844677022       -9.54413813943460       -4.90094188802820
C            4.88385846678366       -3.50329860763656       -6.36562502896034
C            5.13769847933763       -4.14366572215579       -7.61322805068417
C            5.53838986032193       -3.44046564189688       -8.69607114901694
C            5.73290897423500       -2.03116064979976       -8.64674637911132
C            6.16261031055981       -1.28678108449346       -9.76815937524788
C            6.41555228712950       -1.92881588852840      -11.08280507225972
O            5.79029642474985       -2.90558927619269      -11.45169881547317
C            7.45249097952104       -1.33658889268857      -11.97230121189304
C            7.21658377487678       -1.24168111908635      -13.33694122580551
C            8.16580286649315       -0.70116848030839      -14.17718619179121
C            9.36684153618737       -0.25252857305880      -13.66485264107884
C            9.61783869889211       -0.34917042420511      -12.31075458178094
C            8.67011032434611       -0.89035228785278      -11.46955647791355
C            6.34222485678694        0.08533804549577       -9.63810513779130
C            6.12181431828289        0.76138022694048       -8.45057679720022
C            6.34494275640060        2.15478011243634       -8.39572712286775
C            6.55418809522673        3.35087498136719       -8.33182650840953
Si           6.92347304653656        5.09625596436892       -8.21867638853369
C            5.48539984708786        6.13793472252101       -8.81093297909606
C            7.30124938587478        5.60012224850339       -6.45568569312982
C            8.41223182965428        5.53587051368960       -9.26504277111450
C            5.68747005322741        0.03857998862233       -7.31818354203573
C            5.43369895945979        0.67953449068588       -6.07049245970642
C            5.01699633932231       -0.01926617703071       -4.99080127129617
C            4.81813472070835       -1.43000843933496       -5.05066131706411
C            5.06533701489538       -2.10101787623326       -6.27447339233147
C            5.49615985173005       -1.36223972441072       -7.41861099733984
H            1.38373154216598        0.79534669206096        0.86270655470979
H            1.13617594212139       -0.76057462696887        0.06154716075714
H            1.21899171703385        0.72158668771276       -0.89562848928385
H            3.97418709635354        2.26883367682065        0.62521336663926
H            3.85718156741728        2.24007350477076       -1.13798120520680
H            5.30929411665435        1.62832533689286       -0.33952582794675
H            3.83957996328253       -0.24609647433391        2.23272134195306
H            5.17115903068057       -0.95294480648503        1.31037240151206
H            3.64053056804844       -1.82232880581416        1.45832738513233
H            3.88424302524868       -4.09740289425711       -3.18597982243943
H            1.48580175505296       -8.63090440037621       -4.74842543141792
H            2.57361019057005       -8.89339190410767       -3.38148684136341
H            2.24353818937906      -10.21055283367257       -4.51281147743782
H            2.60050797732100       -8.58415459681312       -7.60265715821768
H            3.32162259746479      -10.16897250588564       -7.29903593700896
H            4.32752104599615       -8.83518898509600       -7.87627908210809
H            5.56670548098714       -9.30389346903670       -3.86459360894815
H            6.20637739076575       -9.28162023118001       -5.51119754281097
H            5.17010589863715      -10.61273290255644       -4.98428473343821
H            4.99740766103522       -5.20813373433989       -7.68286719237891
H            5.70851494271973       -3.94505356826497       -9.62950106462248
H            6.27919681077029       -1.59879077610250      -13.72796597661573
H            7.97125941760121       -0.63017695056258      -15.23485553119538
H           10.10883129275265        0.17066768407190      -14.32213802934876
H           10.55687114652607       -0.00207545260207      -11.91150198314933
H            8.86393073004271       -0.97417780368386      -10.41398405610160
H            6.66443841298895        0.64973095637805      -10.49490771855050
H            4.60350923965296        5.92632847226564       -8.21310115788294
H            5.26663975172775        5.91136646052275       -9.85052739456464
H            5.72403867420076        7.19402049216187       -8.72389709956570
H            6.44286250432363        5.40131234322637       -5.82037738487279
H            7.53491643557765        6.65994137247310       -6.40913958068286
H            8.15124432402477        5.03615151668001       -6.08221283402971
H            8.21377542440707        5.30490507023837      -10.30777559376558
H            9.27635551533465        4.96415405079900       -8.93886861515979
H            8.63679726646103        6.59481842623652       -9.17581406115548
H            5.57844156238883        1.74347732395796       -6.00025652515715
H            4.82967935446562        0.48741656057808       -4.06025613688339
