46
 energy: -8.420069649870 gnorm: 0.000501450705 xtb: 6.5.0 (97a52f5)
C            1.04361848979255       -0.02477350857620       -0.09123821582838
Si           2.90858019194328       -0.11857578458313       -0.22188908132840
C            3.55411006662519        1.63144396349922       -0.37960646102575
C            3.55454782836486       -0.81815035799482        1.38987821569141
C            3.40915464832588       -1.12601979049141       -1.61144311230509
C            3.72926364202604       -1.80021995420004       -2.57154554577310
C            4.09857002323569       -2.56354024706524       -3.70354178888289
C            3.89037495530832       -3.92066073237943       -3.70938198299323
C            4.23751845787835       -4.70660881752939       -4.80969497209954
C            4.80264423235702       -4.15651245777847       -5.93356457429352
C            5.13500466959043       -4.98370911716079       -7.03162402338666
C            5.41872061981267       -5.67934633834184       -7.98785716596079
Si           5.81037276691890       -6.66832538218690       -9.42486456079690
C            5.39505327968347       -5.75716783038268      -11.00643430699471
C            7.63029559049097       -7.10314461856895       -9.48307392604578
C            4.84490390760769       -8.27222429238418       -9.42623304639470
C            5.03877431951351       -2.74779655953448       -5.96935766797400
C            5.61833201135975       -2.11939996317166       -7.09582861123590
C            5.83655587538805       -0.77481367123133       -7.11529045706801
C            5.48832514134636        0.01289967285871       -6.01267050824064
C            4.92800430951352       -0.55771615555162       -4.90982048850512
C            4.68599900192616       -1.94975862549744       -4.85223788624536
H            0.75614278910889        0.58153241148087        0.76326481698681
H            0.62993840133787       -1.02219560557718        0.02964216400663
H            0.63056111642171        0.41942528524742       -0.99269849819200
H            3.22621180019754        2.23054978867730        0.46535692150117
H            3.18330154821826        2.08273211217553       -1.29579041174636
H            4.64026655023708        1.62493161787785       -0.40617926362217
H            3.23757779931088       -0.19775269840959        2.22356992421284
H            4.64029896955622       -0.85303297024767        1.36987275454581
H            3.17408053112164       -1.82532503916314        1.53615627416134
H            3.44764282917486       -4.38119945768581       -2.84236222447977
H            4.06015136343391       -5.76856763928077       -4.78493651651344
H            5.97739889398695       -4.84221545961669      -11.07139484155697
H            4.33883333358574       -5.50262452205261      -11.02087734747837
H            5.61916663658208       -6.37883722405071      -11.86886481029154
H            8.22761412413025       -6.19618081839259       -9.51685459873137
H            7.84614494009575       -7.69973796256685      -10.36512317691088
H            7.90468288053435       -7.67127570818849       -8.59848256168770
H            3.77867236735701       -8.06324471854120       -9.42115502311166
H            5.09215942320090       -8.85475120639210       -8.54299964234324
H            5.08481257429632       -8.85564526876593      -10.31085062605200
H            5.88720159122894       -2.72325169765634       -7.94512974068096
H            6.27959757291655       -0.31218969978657       -7.98234600555270
H            5.66574979292473        1.07591785837477       -6.03900290515863
H            4.66102814202357        0.05029919081888       -4.06288449364711
