48
 energy: -10.114122780028 gnorm: 0.000759328420 xtb: 6.5.0 (97a52f5)
C            1.35849972085770       -0.14668986381310        0.19108706969019
Si           3.17206611366856        0.13342948068589       -0.17981626600332
C            3.94567527129788        0.91746233224498        1.33404817348646
C            3.96672692624752       -1.54477008498241       -0.41887142668776
C            3.38776053377541        1.16166219442721       -1.62674465754511
C            3.54065074302038        1.85018641793683       -2.61667136609453
C            3.72102737648596        2.64741898709338       -3.77304257930021
C            3.67571006819891        4.03499819011040       -3.69656027205448
C            3.85044241725987        4.81017920822821       -4.82234364852204
C            4.07639547435570        4.22357599948181       -6.06274378621459
C            4.24774866926084        5.01845668533448       -7.21621605262129
C            4.37251996054759        5.71144113746795       -8.21367110258978
C            4.48962442564161        6.51687946870339       -9.36596821184718
C            4.39029185854694        5.99985027765926      -10.63968438309847
N            4.48069858064389        6.72983204772563      -11.72741161135949
C            4.68045277052802        8.03480051157647      -11.52794076883417
C            4.76897902960124        8.84780174707407      -12.68202839098873
C            4.82280082269028        9.55748622713277      -13.67610222842967
C            4.86837981688577       10.37805051695314      -14.82215265496305
C            6.07611212985498       10.65381669129472      -15.45490771775181
C            6.11717041893957       11.45772192552961      -16.57454187515165
C            4.95292950621986       11.99888156158396      -17.08060791848455
C            3.74662984467524       11.73503426159463      -16.46459476719943
C            3.70406108240246       10.93164372979780      -15.34476577105608
N            4.80042354982945        8.65160810219557      -10.34999208107032
C            4.70120209462565        7.87691183096110       -9.29455538953440
C            4.12162646301662        2.83593433974895       -6.13955188381302
C            3.94688116395568        2.06117470195887       -5.01348451669201
H            1.24829090597103       -0.78267179981996        1.06462246400561
H            0.87596080724071       -0.62582470356031       -0.65589981962699
H            0.86823815401309        0.80324720562486        0.38341759641824
H            3.80352580032959        0.27914676693172        2.20125464685869
H            3.48553358451167        1.88199395060158        1.52803982476421
H            5.01020470166632        1.06220960267388        1.17429505227863
H            3.83234124344949       -2.15472667830002        0.46967869267434
H            5.02993640380713       -1.42774708656012       -0.60746529080427
H            3.51411469177446       -2.05243885330634       -1.26571028310527
H            3.49963847585616        4.49818244645551       -2.74071781441551
H            3.81201574471433        5.88393263668602       -4.75353710748403
H            4.22467386191448        4.94087819736827      -10.76226617272537
H            6.98200500075879       10.22983925819718      -15.05637790361144
H            7.05967528715920       11.66375391413973      -17.05492704841940
H            4.98576836879859       12.62702511607253      -17.95582703000007
H            2.83687489405312       12.15762895064815      -16.85869260277392
H            2.76535033738043       10.72443575949761      -14.85980409659309
H            4.78664981872165        8.34236463493512       -8.32503829693483
H            4.29327793496515        2.37287136969806       -7.09623074446678
H            3.98209714997498        0.98734068605273       -5.08304798110040
