46
 energy: -9.469671079427 gnorm: 0.000933458190 xtb: 6.5.0 (97a52f5)
C            1.36701433064072       -0.45184540667233       -0.05046596249033
Si           3.20071703335260       -0.07878352303032       -0.00430997220221
C            3.90547840401097       -0.88273233563766        1.53228277491008
C            3.98432327088002       -0.90614888403736       -1.48945910595062
C            3.49798219647972        1.68397364623841       -0.01121675604497
C            3.70082706216140        2.88319881083321       -0.01643250358060
C            3.95505437612429        4.27264454839980       -0.02132108755227
C            2.90628975946491        5.15898484706607       -0.08965163773798
C            3.11669466650580        6.53129689266503       -0.09711444689057
C            4.38881599837769        7.07518987960888       -0.03671626334091
C            4.61448046865970        8.52193347681996       -0.04390050069462
C            3.57077296455931        9.43060400043778       -0.10907870623217
C            3.79495927693803       10.80412499444722       -0.11658779005924
C            5.06449057492532       11.29816799114247       -0.05963949423139
C            6.16900206003351       10.42432711898765        0.00864097166076
C            7.48797620402325       10.91925868820138        0.06742058161354
C            8.54554056237356       10.06136997442490        0.13279663810152
C            8.33858997204852        8.68494540437744        0.14317476757578
C            7.06710416953861        8.13846322153762        0.08793303651337
C            6.83922815626789        6.69081069844980        0.09849583262361
C            7.88488425929042        5.78569473214204        0.16851986343300
C            7.66295790203396        4.41317243809798        0.17729513572507
C            6.39389921245294        3.91887026242919        0.11616435949626
C            5.28453991723553        4.78526336481047        0.04317664557802
C            5.50403541502748        6.18896960914561        0.03474297348669
C            5.94935562986773        9.02225251418454        0.01780145168705
H            1.20018216281248       -1.52530820642438       -0.04282042178643
H            0.92637393420469       -0.03369832806902       -0.95122916107955
H            0.87763842179410       -0.01348774807985        0.81481925045476
H            3.70840654649741       -1.95104188630939        1.52207310388625
H            3.45120704680898       -0.44951952485027        2.41903201034011
H            4.97933849179524       -0.72371957547371        1.57523632886323
H            3.78451010485084       -1.97388614930832       -1.47459967127549
H            5.05931545549340       -0.74967306941133       -1.47825276642774
H            3.57859761123182       -0.48501591077225       -2.40506596152194
H            1.90296333982920        4.77029912666185       -0.13813199602075
H            2.25998446999980        7.17728727042614       -0.15213932519985
H            2.55630786077227        9.07977928799974       -0.15557750390963
H            2.95755133453472       11.48108971861005       -0.16832726840446
H            5.23699612660201       12.36080405147422       -0.06619150996189
H            7.64885429652594       11.98371219971616        0.05946650964960
H            9.55006058060260       10.45018204038628        0.17712405380216
H            9.19728219721466        8.04128674816942        0.19555348846986
H            8.89839339202483        6.13872662906625        0.21847989281583
H            8.50068897965705        3.73685042556061        0.23323665764874
H            6.22641380342097        2.85588593549053        0.12324348431695
