32
 energy: -6.085792860978 gnorm: 0.000751801654 xtb: 6.5.0 (97a52f5)
C            1.12048200371552        0.04327729811284        0.00674647056466
Si           2.99099449070964        0.00901722975449       -0.05926400227477
C            3.58998611217946        1.78190446857802       -0.00344690598828
C            3.59481856887822       -0.84127723502055        1.49566834618104
C            3.56431953374563       -0.83251408139742       -1.52914943273648
C            3.90690412875111       -1.41139670145981       -2.54212408969783
C            4.30296273195171       -2.07462670630746       -3.72784885966726
C            4.16014837502583       -3.43674723962053       -3.82968168455177
C            4.53680533866214       -4.12596852098534       -4.98736511081516
C            5.05986886789664       -3.45543863509414       -6.05083924600405
C            5.23017990780865       -2.05376481216759       -6.00346074135098
C            5.76992764454323       -1.33127542687878       -7.09308002165448
C            5.92089023798617        0.02078876484524       -7.02534184622142
C            5.54319739875982        0.71789927508687       -5.87103952309805
C            5.02121630773508        0.05228278592559       -4.80292796492930
C            4.84873891452712       -1.35091122533201       -4.83428516568714
H            0.78522437615362        0.54605958552456        0.90961373815791
H            0.73055397088186       -0.97083475169813        0.00281818275229
H            0.72886660589775        0.57294979099018       -0.85726338867712
H            3.22600916599362        2.27198026283140        0.89534769167030
H            3.22661872956660        2.32441255219425       -0.87180731388991
H            4.67618034735285        1.80692432290676       -0.00288234980318
H            3.22473297091998       -0.32165329442883        2.37513727867341
H            4.68104626983862       -0.84374280389355        1.51930017842225
H            3.24089641181671       -1.86821983967261        1.51907528903823
H            3.74802385350274       -3.97875018908441       -2.99534074082376
H            4.41082798429337       -5.19549771092738       -5.03431693583660
H            5.34926673321839       -3.98608547299585       -6.94184385066677
H            6.05957530169644       -1.86812097890786       -7.98025921802915
H            6.33375672949054        0.56068258922077       -7.86225093558093
H            5.66771022927534        1.78797495720570       -5.83042490449165
H            4.73230975724980        0.59039174266850       -3.91690294299178
