85
 energy: -17.005886885634 gnorm: 0.000985109794 xtb: 6.5.0 (97a52f5)
C            8.42198691510618       10.13540650147806        5.25834862816837
Si           6.98070447935838       10.22374231218757        4.06758317035544
C            6.30618711779900        8.50230296548258        3.78246175194939
C            5.62762441896869       11.32204497265822        4.75795793550418
O            7.53069349490454       10.82577905133457        2.60039024086274
Si           7.50605360198944       12.37475354460223        1.93807278968463
O            5.83685307612391       12.48661082429897        1.76949153773974
Si           4.86595763743806       11.62768180632548        0.70008931299570
C            5.73014534765960       10.04845260301044        0.17747684456347
C            3.24803596277540       11.22454916344104        1.54955868683899
C            4.54296418607295       12.67312834632200       -0.81785899908396
N            7.80719322747907       12.41134438895813       -0.04278252632888
C            8.26689078134718       13.59660670033853        0.78492502157076
C            9.34505526910470       12.17845797049336        0.37094977001402
C            9.71940633158493       11.06058736916038        1.30207002259287
C           10.12616510739154        9.86497901183634        0.85971752023784
C           10.21544249417935        9.55413159326380       -0.53772706481484
C            9.92240934892816       10.47603594639564       -1.48211383410971
C            9.56233414547623       11.81362941335161       -1.09956859050915
C            8.41578831991221       12.61359213002035       -1.43475159574724
N            8.73064376560101       13.93008841835067       -1.79902126486197
C            9.87770647630481       14.53043081968946       -1.28232913550449
N            9.93725084964505       14.92282764461440        0.04161575404149
C           10.95347093333064       14.28749412924348        0.67914360355516
N           10.98095564660096       13.81707635172705        1.96319312441299
C           10.07962540172790       13.60318419298971        2.97709671675559
C           10.53196050056908       13.84005181201303        4.34155493454101
C           11.79098926079926       14.12233787644212        4.86208644989429
C           11.90888712727861       14.35674541315526        6.21323326262432
C           10.79177140328945       14.32772717660262        7.04893546065811
C            9.53874962096152       14.05920532943273        6.54719876428005
C            9.41168130373225       13.79926495646117        5.18658934159282
C            8.25681315656355       13.54201013460011        4.33376170996734
N            8.72277288263072       13.25749048484227        3.05210692095909
N            7.03407515189361       14.09010541806428        4.57049930441475
C            6.59374340097591       14.92738257241856        3.59539697600988
N            7.45357645801415       15.37421376524733        2.66948854602153
C            6.81767328304211       15.38135597022838        1.44674757172431
N            7.34018136854097       14.64685570445075        0.47161047451548
C            5.36357742376475       15.41689138473562        1.73791866859680
C            4.24032865786001       15.57420735145921        0.93672378407307
C            2.99825508567311       15.38569906588044        1.50459946675981
C            2.86821638198304       15.02565474470659        2.84415913373178
C            3.97703269416797       14.85453008159375        3.64345179920169
C            5.23131276955220       15.06312119491325        3.08256855261906
C           11.86462029246106       13.81164777868831       -0.34615437670488
C           13.09989614596777       13.17365707901494       -0.28219854338132
C           13.67465726663582       12.73793193010908       -1.45427714711201
C           13.02713662616986       12.90989259905771       -2.67789444818640
C           11.79469619427325       13.51912699669750       -2.74833027743740
C           11.21289240909722       13.98660001959091       -1.57182075769677
H            8.09139011242890        9.77191140700637        6.22681452340529
H            8.86047218456466       11.12014196712985        5.38340834727392
H            9.18098454184198        9.46440510522087        4.86867869696101
H            5.39995457281778        8.54948484823294        3.18627064080836
H            6.07827203806478        8.02487296847848        4.73094540171923
H            7.04163721137332        7.90223352708626        3.25502460410997
H            4.97845714947852       10.76261132889501        5.42495303352013
H            5.03806357647578       11.72669354448944        3.94163058217147
H            6.06352148151461       12.14929199245659        5.30791881549876
H            6.14447739230787        9.55079401853970        1.04823484789453
H            6.54303528562070       10.28212154229349       -0.50351883561956
H            5.03541778044478        9.37764976416613       -0.31944118945143
H            3.41981585568695       10.53685986736406        2.37175374389651
H            2.55607214003639       10.76767603639887        0.84836056387955
H            2.80403571277668       12.13423550971708        1.94168347342838
H            4.19036854459783       12.05526240228568       -1.63803982722202
H            5.46117628244158       13.16937892444305       -1.11588069451515
H            3.79194706138386       13.42509072708569       -0.59971345412454
H            9.67775825660012       11.25922094639741        2.35812950925827
H           10.38881724948685        9.09991578494376        1.57191225945568
H           10.49673788464278        8.55715915281377       -0.83284403819995
H            9.93450705858111       10.21451936406962       -2.52725530570954
H           12.64356257109575       14.15743263408056        4.20728747258879
H           12.87779303976400       14.57389907403040        6.63170848634365
H           10.91139775176200       14.52456396701278        8.10155386621631
H            8.66804090192470       14.04722712020480        7.17883064625696
H            4.35355049034666       15.82824652637948       -0.10237728074528
H            2.11487094650149       15.50635039058621        0.89919455069120
H            1.88607743797866       14.87204685447021        3.25962428635474
H            3.89085386638365       14.56149704127535        4.67490608862874
H           13.57684811512135       13.02329127845927        0.67014839099048
H           14.63274816665088       12.24584623195302       -1.42569259259173
H           13.49252273084282       12.54767448327643       -3.57960889536333
H           11.27317340583398       13.62668865680772       -3.68313571051686
