45
 energy: -8.019899483006 gnorm: 0.000644071532 xtb: 6.5.0 (97a52f5)
C            0.89772262524043       -0.93700746323860        0.26221794453247
Si           2.59908763739369       -0.18336877317132        0.10266160069940
C            2.40528941248270        1.64478223063918        0.43774471620370
C            3.62270827735918       -0.87114241110719        1.50535074486031
Si           3.57677551535515       -0.65413730528479       -1.95853377480866
C            2.88417985946508       -2.20785764643914       -2.75175856359971
C            3.22295756945006        0.64682987001541       -3.26529488083576
C            5.43354145849244       -0.81996860753688       -1.74845144591732
C            6.01753384859523       -2.09016343924822       -1.62335928150182
C            5.29116572706125       -3.23354846892992       -1.18043560541982
C            5.87483506746302       -4.45645639084749       -1.10395898125379
C            7.22893203534985       -4.62642375330561       -1.45006252270800
C            7.97762683507148       -3.56194704239129       -1.83382629933987
C            7.40912374731269       -2.25908757142644       -1.90941571227174
C            8.18108923532525       -1.14809758851085       -2.23660971620328
C            7.63584753436595        0.13237922651403       -2.24194701641272
C            8.43540411226184        1.27999524713126       -2.50649422817877
C            7.90317141313604        2.52689918505756       -2.45143449431526
C            6.54775291279755        2.70847450246134       -2.11646517603190
C            5.74846358284117        1.63911310645275       -1.87320797427055
C            6.24428687584052        0.30587131013332       -1.95998972850363
H            0.47238256637682       -0.70343103391345        1.23451241203722
H            0.95625733730188       -2.01681126839274        0.15493546465272
H            0.24378312544148       -0.54303232783946       -0.51120435160140
H            1.89419616718734        1.79867673879190        1.38403917633813
H            1.82458746697848        2.11033658639222       -0.35383168209587
H            3.37959233922986        2.12313045646506        0.48584026039921
H            3.17963242418132       -0.60559981575032        2.46153273714518
H            4.63080839521239       -0.46729923629215        1.46037440738541
H            3.67634642214693       -1.95403528868370        1.43186151887657
H            2.04887360558956       -1.95227474843207       -3.39796158251093
H            2.52175296033473       -2.90541954208821       -2.00202742348208
H            3.64749918341473       -2.69445025923465       -3.35295689028223
H            2.37209700483131        0.34666648662139       -3.86994660409676
H            4.08273547079731        0.76387985788389       -3.91910294530998
H            2.99090852007845        1.60643714680163       -2.81231732107709
H            4.27477447438586       -3.10378526751719       -0.85681074434836
H            5.30348249735629       -5.30602819091927       -0.76645504005548
H            7.67364727676746       -5.60675578947720       -1.39265721111808
H            9.01839660664010       -3.68910753315458       -2.07840059861366
H            9.22722501162692       -1.27650798208389       -2.44905583689242
H            9.47661351913596        1.14325994738532       -2.74384668750332
H            8.52140936285853        3.38735854379911       -2.64996866356537
H            6.14768750847447        3.70697036821703       -2.04576909755680
H            4.72909547109781        1.78944393437408       -1.56848290151128
