38
 energy: -5.529848692484 gnorm: 0.000310612026 xtb: 6.5.0 (97a52f5)
C            0.72577387126818        0.35909584870550        0.42464056837139
C            2.17537671057588        0.08964877555809        0.18268644674602
O            2.63915114110600        0.23488416975946       -0.92763228233378
C            3.02187987521532       -0.35034215837562        1.32369138437272
C            2.66874268564826       -1.44618136061339        2.09253521438954
C            3.48586840649833       -1.88326460399739        3.14809821451351
C            4.64380773925920       -1.22701416868081        3.46097040920088
C            5.04299586970968       -0.09265785331950        2.72717704687143
C            6.23087922466028        0.54473101097484        3.09187021517701
C            6.55338872342251        1.82157429111951        3.06901020937873
C            5.62125409613028        2.78895112967805        3.19667665177123
N            7.05707283640271        2.57834791496760       -3.29831914108750
C            4.07007816479986        6.36132758040122       -4.00750069953374
C           10.37747796330779        5.02323194610493       -0.36370921116978
C            4.65419867079174        1.36973223401665        0.83397632345050
C            4.24557866426329        0.33617107489246        1.62414388672145
C            2.91290069936801       -3.11607857376433        3.79610578298604
C            1.68535279229967       -3.52093009377194        2.94903666304647
C            1.48310331623896       -2.36563163977913        1.94128168687285
H            0.42646353503582        1.27999121682762       -0.07405401816988
H            0.51518151946759        0.46971113831442        1.48814574499307
H            0.11189043237000       -0.44940277775185        0.02965363935334
H            5.25232254883705       -1.57468689710721        4.27613848987324
H            8.20788992139325       -0.23798439301034        7.87658814217497
H            6.08315280377558        3.73232147096989        3.16422392237031
H            2.68847013566216        1.05227057795763       -2.99484749400968
H            7.51363187703536        3.40897967377132       -3.59738622962612
H            3.35231516248997        5.77972240463967        0.47719151457981
H            8.17697425488294        2.15635229973398        2.54882903905972
H            7.57172071520442        7.64966361089549        2.59827403735379
H           11.14075370728857        4.60843099931315       -0.90359812087843
H            4.11440796060769        1.69774209899922       -0.00339051276928
H            2.63126410393701       -2.88985500540356        4.83103532668463
H            3.66645276251548       -3.91125443151954        3.83612151908162
H            0.79546441345719       -3.68313312825537        3.57011014197233
H            1.87171232702885       -4.46553109347353        2.42318507074959
H            0.55881708484717       -1.81706834367494        2.15339407124314
H            1.41256327928809       -2.72800493671423        0.90916634536448
