45
 energy: -6.544993126769 gnorm: 0.000478869824 xtb: 6.5.0 (97a52f5)
C            0.98161110209705       -0.20074786281274        0.11013011878756
Si           2.84247603797964       -0.11621229945932       -0.02962206863833
C            3.48806622658222        0.45585170629000        1.62691974071187
C            3.44910612695358       -1.86733109624319       -0.26219263697249
Si           3.55353580247602        1.27217089652783       -1.75827146760534
C            2.85660483759029        0.77210970441548       -3.41901795715968
C            3.08713525962160        3.06465130470273       -1.50077403034983
C            5.40196826045153        1.18056386036548       -1.89807747316384
C            6.10222085826977        2.21789176483586       -1.35366297388893
C            7.42511342642935        2.48607127600355       -1.18718611567355
C            8.41274463230862        1.72428568493256       -1.54957686989653
C            9.79111326201805        1.76316262438535       -1.49536673556694
C           10.46737379593778        0.73431613030921       -1.99667673235591
C           11.76232344297296        0.38304663115860       -2.14256707624480
C           12.24075035866518       -0.75852600091914       -2.70709639548937
C           11.53701892096925       -1.79627963935390       -3.24645630813308
C           10.21590155443452       -2.06486840454495       -3.41213286738239
C            9.22721408164271       -1.30362861716585       -3.05166508032495
C            7.84920171393125       -1.34375747555769       -3.10963494563116
C            7.17339945758558       -0.31375768597069       -2.61092576291423
C            5.87669773273156        0.03818061004909       -2.46477199137773
H            0.69487389927252       -0.85044975595342        0.93245140518253
H            0.55731411780371       -0.59181102613603       -0.81061070338005
H            0.57639220726908        0.79153819938041        0.28865914607590
H            3.16305709376679       -0.22072789503607        2.41251515970059
H            3.11764832975771        1.45341641715248        1.84674155718364
H            4.57428666341452        0.48099578716593        1.61204508292488
H            3.10238084235907       -2.49861784036625        0.55130028478591
H            4.53542928774351       -1.88339128170998       -0.28128866538730
H            3.07679759736836       -2.26773076966655       -1.20113403844079
H            1.77621234383075        0.88785928599959       -3.42086281787007
H            3.09825391923846       -0.26698064694403       -3.62480842363043
H            3.27865681857779        1.39273626931882       -4.20458186435100
H            2.00642507522341        3.16333886009940       -1.44660225259488
H            3.45515918205706        3.66931387946354       -2.32498028058734
H            3.51951216543641        3.43313860592579       -0.57467205256729
H            4.07438274260460        7.31181607536354        1.97968563485333
H            9.78192169976474        8.28288364860563        2.03879903130611
H           10.30052624127786        2.60387860123060       -1.05902071516810
H           17.04615627127796        4.10983517366444       -0.07644302751500
H           13.31401179330163       -0.85643483073409       -2.73289328839950
H           16.60475110697874       -5.26326470977607       -5.19393262570187
H            9.34507910555048       -7.91396723298217       -6.42852930461669
H            7.33954390203580       -2.18516954241876       -3.54432240766873
H            2.30013070232075       -4.27834838387260       -4.76578920491924
