90
 energy: -12.972917564877 gnorm: 0.000849722004 xtb: 6.5.0 (97a52f5)
C            0.91345639192286        0.11955237106397        0.07785383339065
Si           2.77618053240148        0.22159821047739        0.15343370839660
C            3.39631068636134        0.00252497668728       -1.59425783372303
C            3.18419617766337        1.97772070836884        0.64433305874963
Si           3.66698466530583       -1.38860238748318        1.57331459797353
C            3.12056251136245       -0.95025056772228        3.27974248177273
C            3.37211296445366        0.24733865478263        3.85294213626863
C            2.84505000439519        0.36807224200560        5.17861664432830
S            2.80417156186908        1.60977958079327        6.42725321204714
C            1.90474175119690        0.56106974211950        7.50579810986437
Si           1.34962666120396        1.06762250853470        9.19120365044282
Si           3.25428678847250        1.97166181021926       10.17002034689064
C            3.60815747167599        3.70735056473582        9.57862426476886
C            3.18275785071400        2.04814120342214       12.03491026323083
C            4.75577499775813        0.95023610661379        9.73483791677163
Si          -0.41227534330467        2.50939711530212        8.73168347096854
C           -1.47463964253710        1.81932746116415        7.35943070482973
C           -1.53419953096035        2.78772254242935       10.19871582256981
C            0.15911467748947        4.19183342417297        8.15696266727215
Si           0.58360018486888       -0.79760619364427       10.35311241892442
C           -0.98411439141320       -1.52196835405370        9.63865441603050
C            1.84806408373827       -2.17156905317807       10.41117590516585
C            0.18561181035036       -0.38575572287034       12.13097145716080
C            1.66875968499652       -0.64219862161141        6.93896355332569
C            2.19546178541536       -0.76115097581656        5.61351125757538
S            2.22928590530431       -1.99987083484834        4.36257402099495
Si           2.88833044720104       -3.52531303030928        1.09119610226051
C            3.23719224404875       -4.04234251392607       -0.66927411419950
C            3.69699759959647       -4.79836692170492        2.19247682157779
C            1.04562636939743       -3.70544644287828        1.33780177983577
Si           5.98633762579071       -1.37406379855553        1.68430769676294
C            6.77708456418069       -2.48777359420234        0.41042522878945
C            6.71419273665681        0.32715164361885        1.43014188495019
C            6.57401080379628       -1.96242194224567        3.35648192376602
H            0.51407634901127        0.94750877135289       -0.50182802183357
H            0.49945474625907        0.16096739017971        1.08194907944890
H            0.61057607685496       -0.81378026667288       -0.38867968964076
H            2.98471263774275        0.77462097710161       -2.23886100923113
H            3.09735034921179       -0.96978399851889       -1.97640540148287
H            4.48110206023183        0.06698661894377       -1.61381202562291
H            2.84302707388298        2.66952713781961       -0.12115128784803
H            4.25752855906983        2.09321697744047        0.76642825554871
H            2.69543841160509        2.22737074397836        1.58215302348872
H            3.92076109890708        1.03732006958044        3.36640084273185
H            2.86610820644441        4.39423222053778        9.97634209911966
H            3.57386310161555        3.74315824642056        8.49304061423783
H            4.59272875226930        4.02629661364358        9.91012731462901
H            2.25806059772623        2.52399836718069       12.35095223772728
H            4.02241420432317        2.62026095564000       12.42059453885704
H            3.22336915397020        1.04496844252827       12.45045553531766
H            4.87796239322751        0.91465591502811        8.65559777021867
H            4.63591302095413       -0.06402616944567       10.10601391365207
H            5.64944021871870        1.38315542064296       10.17628542475612
H           -1.88686535362413        0.85783998878547        7.65312610815875
H           -0.87566330997646        1.68251126657559        6.46296357054216
H           -2.29265213110529        2.49891798522963        7.13591197941801
H           -2.00960283063578        1.85379613755742       10.48649623432163
H           -2.30566374372290        3.51229646524744        9.95188361644772
H           -0.95653876017932        3.16178776152372       11.04002662785935
H            0.88536984393395        4.08233946837029        7.35595632108969
H            0.62230621764541        4.72858329647826        8.98019459777697
H           -0.68348341926276        4.77232333284788        7.79084643428433
H           -0.84973633784545       -1.77183397348681        8.59008473581506
H           -1.79433787349289       -0.80277269780672        9.72347143693199
H           -1.25968763131293       -2.42316813365202       10.17988750268722
H            2.11929514156713       -2.48074110118152        9.40553483357355
H            1.44651863776019       -3.02844924286731       10.94555089879298
H            2.74243841918727       -1.82715401184337       10.92357154964161
H           -0.50605827160475        0.45125099851448       12.17429501987350
H            1.09293969193046       -0.11713686544906       12.66444477149210
H           -0.26756834341180       -1.24263629949657       12.62239845449360
H            1.13081803280073       -1.43767397871902        7.42654318954812
H            4.29696472271992       -3.94070522989231       -0.88647266424812
H            2.67697524160491       -3.41588935421926       -1.35810418109888
H            2.94523723543464       -5.07808132190453       -0.82098135978036
H            4.76856633919995       -4.81867422403389        2.01377967218129
H            3.28879780991360       -5.78552504757509        1.99290932709687
H            3.52159094946537       -4.54899946094241        3.23553583297348
H            0.51062277417473       -3.07735516405072        0.63102394695013
H            0.77484775452942       -3.40600252202587        2.34652106446292
H            0.74481224149854       -4.73850248442517        1.18535118423309
H            6.46255383399625       -2.19049977967462       -0.58651818511568
H            6.47935343213411       -3.51903561230208        0.57914191471873
H            7.86028164262246       -2.42293154791673        0.46942144522519
H            6.45673359284642        0.69643751642591        0.44103227909068
H            7.79654286616556        0.28879426442583        1.51954947713357
H            6.32486882717410        1.01619025924257        2.17478554327004
H            6.21211148540986       -2.96967592725043        3.54414814967825
H            6.19553952124532       -1.30535086323373        4.13493229528781
H            7.65999210775504       -1.96520824211667        3.39546375124182
