93
 energy: -13.648630220983 gnorm: 0.000743286451 xtb: 6.5.0 (97a52f5)
C            0.94420884181452        0.30178944198619       -0.04326235443361
Si           2.80655306825456        0.15640121011103        0.01050552934462
C            3.45637495651577        1.85530182461419       -0.41460152342121
C            3.28157062896098       -0.14709459388627        1.79168918921395
Si           3.64107174243412       -1.48118320388784       -1.41876172927042
C            3.13935335037158       -3.14915730010910       -0.80817701058936
C            2.21041957532873       -3.38592858321342        0.14513949897356
C            2.02296967414575       -4.77407043549675        0.42865284029112
S            0.99574074449600       -5.70623914702245        1.53350409837231
C            1.69450460634523       -7.22100565772976        0.93233318449257
C            1.50550225958214       -8.60903261990223        1.21552685268823
C            2.29486130742344       -9.42287724057794        0.47925896257870
Si           2.33297767535281      -11.26553033203052        0.57533145947068
Si           1.75657402267104      -11.91926585458439       -1.57929040010524
C            3.15019330326248      -11.70054168277128       -2.80349858522885
C            1.21044827160869      -13.70164670326861       -1.69457795961831
C            0.33956889172111      -10.88044778357556       -2.21176194366708
Si           4.49701709812319      -11.71018395438170        1.29496625076117
C            5.03320695469983      -10.44025796410469        2.55480443420746
C            4.68329408861104      -13.38213363703279        2.10630813230028
C            5.74869719343434      -11.63880882069745       -0.08915287931233
Si           0.77501392935112      -12.01638301263749        2.13149120278404
C            1.09597607977098      -11.37519654469330        3.85709861884133
C           -0.97474763172018      -11.54001912142309        1.68183598172607
C            0.77890181230318      -13.87912003146754        2.27129543948203
S            3.31604963670746       -8.50761095779181       -0.60956503019585
C            2.64138260215208       -6.98918800292269       -0.03784869721390
C            2.82556341398954       -5.59564869841769       -0.32790752512808
S            3.82494232276428       -4.64226775503304       -1.41409282881972
Si           2.65963261592405       -1.34784048805148       -3.51860791390549
C            2.73871102739705        0.37461652392336       -4.23591927362222
C            3.45381750189424       -2.49214635080805       -4.76294498865881
C            0.85537217450990       -1.82464087437274       -3.44706290012025
Si           5.96485347730361       -1.53077906150776       -1.39236006490164
C            6.75628338710075        0.15837625333348       -1.49129770373459
C            6.58162443189136       -2.31900259180922        0.18402355912561
C            6.68075771494033       -2.53525518248024       -2.79491516195422
H            0.60208740708657        1.00123020835130        0.71473657904791
H            0.47831968137871       -0.66304129870459        0.13540371179552
H            0.63124958999117        0.66466304881594       -1.01852760890299
H            2.95981893468112        2.60736103911022        0.19264449980205
H            3.27241703277134        2.07292573994038       -1.46310684198842
H            4.52515089428038        1.90673395125300       -0.22802084411803
H            2.82751977553930        0.60179119887085        2.43496403090299
H            4.36144415686305       -0.09231158884681        1.89967877203185
H            2.94924756005165       -1.13107205658965        2.11041090727623
H            1.66260324655391       -2.60857709148676        0.65049805865954
H            0.79801983005314       -8.96444192979661        1.94546863228718
H            3.94004592499147      -12.41907449650449       -2.60334999952187
H            3.55912686964268      -10.69700821314637       -2.72280492225041
H            2.78894028910047      -11.85131795238237       -3.81718647517563
H            1.97003386557493      -14.35049865884839       -1.26656345221725
H            1.05438192342787      -13.98057735268435       -2.73318964506684
H            0.28028553473897      -13.84246565396360       -1.15082891791385
H            0.62627183417623       -9.83225643503134       -2.21965015424541
H           -0.52749536936910      -11.00055202380544       -1.56808805796284
H            0.07227439060602      -11.18020480878634       -3.22145888335632
H            4.36697956987128      -10.46283982035901        3.41290233090483
H            5.00143194563911       -9.44747468267530        2.11406148944655
H            6.04625603422005      -10.64456815315116        2.89060073159118
H            4.11556976738965      -13.41270409561857        3.03230863878781
H            5.72886656040594      -13.57607182071376        2.32995440171600
H            4.31549848254011      -14.15970973232319        1.44207367744193
H            5.63152150464752      -10.71374638996811       -0.64721880056550
H            5.60464452093474      -12.47786411060760       -0.76419753176493
H            6.75797506754477      -11.68121792883841        0.31131802738179
H            1.08654443872547      -10.28908966324920        3.86976492633775
H            2.06691273366990      -11.71894193452960        4.20347077886911
H            0.33271323081789      -11.73957925376736        4.53937712970659
H           -1.05248001893719      -10.46529847624485        1.54361364678228
H           -1.66056148953515      -11.84284638959233        2.46846279341352
H           -1.26441114934421      -12.03200216690539        0.75722250541936
H            1.74328398391007      -14.22574349982035        2.63175924649730
H            0.58644116554937      -14.32875493467826        1.30132227101808
H            0.00888108282111      -14.20316262365878        2.96623742637271
H            3.76975124089435        0.71730023771570       -4.26230629516735
H            2.15712879024041        1.05961992382607       -3.62488436096559
H            2.33967105362622        0.38084824873221       -5.24663530574146
H            4.45873332594708       -2.15181825786314       -4.99603504444052
H            2.87092834238477       -2.51469216465921       -5.67975053118642
H            3.50908629091233       -3.49869499487148       -4.35712042023567
H            0.31416685115614       -1.14680432645481       -2.79296076503897
H            0.75631951433828       -2.83588360552313       -3.06164703469979
H            0.41425400321153       -1.78122644361606       -4.43921438530423
H            6.59080688319460        0.70274708919606       -0.56576658660751
H            6.32581408561998        0.72297132043096       -2.31414624022159
H            7.82657836199599        0.06233970324288       -1.65288364983731
H            6.25078453556781       -1.74152585897300        1.04288781570961
H            7.66742614642828       -2.36143772958131        0.18580871323809
H            6.18941882644292       -3.32878743403399        0.26983732606892
H            6.55490304290437       -2.00556220614008       -3.73509164808924
H            6.17428427763824       -3.49434194578454       -2.86088910596500
H            7.74080087385011       -2.70915256692789       -2.63103431831511
