108
 energy: -16.730138038704 gnorm: 0.000655201507 xtb: 6.5.0 (97a52f5)
C            0.78272429276880        0.88140825131805       -0.06092082229151
Si           2.42264149042701        1.52879814720804       -0.67726692686215
C            3.10191084633166        0.25424279309975       -1.86139728101018
C            2.04038422523451        3.05373974984985       -1.68570334358829
Si           3.89743198834374        2.02048105638650        1.04760579782079
C            3.28156048673588        3.63556799964039        1.69486738945175
C            2.37294408477566        3.76903909913814        2.68837771271547
C            2.06278394550594        5.11781496713862        3.01490200939600
C            2.73524042729630        6.03507163188163        2.25666403457605
C            2.62592844444765        7.47105542392148        2.36334388206220
C            1.94189772305802        8.15576219158222        3.33268001580760
C            2.00799874795404        9.56092567365411        3.20014675803090
C            2.73802176898833        9.98729413285819        2.12103652981955
C            2.96699193540535       11.35905693664106        1.74258185656612
C            2.59615611625996       12.46555049141049        2.46182680584513
C            2.94335500822935       13.69227758248280        1.85265855561686
C            3.58153844665699       13.55643461572630        0.64823020829675
C            4.03285522910322       14.63560374100794       -0.19862766683816
C            4.01169543547379       15.96651827535713        0.11254503197499
C            4.50765186155603       16.80413124157274       -0.92434583687073
C            4.90186816204510       16.13687753729546       -2.03328683747115
Si           5.56814273589397       16.93845196781723       -3.55657146592352
Si           5.60020481637935       15.34952478872465       -5.25163952225068
C            3.98714919418838       14.41948472183379       -5.40091192811377
C            5.93554120496760       16.10645405084049       -6.92594650761015
C            6.92785310156774       14.06773849348691       -4.96627317639626
Si           4.21152749394544       18.72995673593798       -4.15384635540795
C            3.74167387535584       19.86622084873440       -2.74664253710059
C            5.05882728928300       19.80066509510409       -5.42821569917368
C            2.61093435798733       18.15445190392817       -4.92472267412028
Si           7.71779011630016       17.60586818565643       -2.99646713614180
C            7.72601771483706       19.17852764779687       -1.98888321285205
C            8.58333746935169       16.30624313900463       -1.97201774955836
C            8.78445058236725       17.91763923909832       -4.49786848428069
S            4.69252757876917       14.42606681345071       -1.80562995416048
S            3.76874552540530       11.86082171013886        0.27353725826789
S            3.36130851147281        8.60337057393938        1.25556481360765
S            3.77036130572999        5.20120344365019        1.11875422496247
Si           3.95943405516877        0.54593889566186        2.84775669627446
C            5.15930073768028       -0.85863714849059        2.57239204183248
C            4.50653609331871        1.39325363886279        4.42045733615730
C            2.30885073633318       -0.24905196104295        3.21520168756635
Si           6.02984088604449        2.39458654140492        0.20004878421199
C            6.90869530322803        0.83323971067044       -0.33029612606503
C            6.00926730597363        3.51271391097715       -1.29574486655475
C            7.12332044393571        3.22204813334304        1.46726024830038
H            0.07181229061964        0.81646632872922       -0.88006646621436
H            0.38367880344139        1.54777256840636        0.69905296622687
H            0.90930518744104       -0.10744399117394        0.37056283219502
H            2.36306149607586        0.01417613853556       -2.62108746329961
H            3.35932390056815       -0.65314249295154       -1.32165837756860
H            3.99447109320867        0.63687830473125       -2.34883465044195
H            1.34125809477455        2.81509012333027       -2.48248900419810
H            2.95157657402422        3.44991804098504       -2.12484676441336
H            1.60135379990858        3.81639257657772       -1.04820023515902
H            1.92712448783789        2.92237663880167        3.18791432593309
H            1.35924643133827        5.39014409557397        3.78615166874263
H            1.40665475392443        7.66593263253498        4.13113045240044
H            1.51960681241561       10.23767256545588        3.88390423146345
H            2.08638618835194       12.40568430451823        3.41082208942933
H            2.71288234531342       14.65068960611474        2.29109337415949
H            3.65291636351462       16.34762691496794        1.05589996234564
H            4.56939479327179       17.87830268445775       -0.83763520576391
H            3.17712924444109       15.10770635318852       -5.62502870260194
H            3.76472350160623       13.91102481708736       -4.46696597219843
H            4.05027522769215       13.68145219475572       -6.19582035695135
H            5.11673950732603       16.76238618419906       -7.20851744687756
H            6.03634195962698       15.32784515957342       -7.67710166531688
H            6.85387448578297       16.68645904119854       -6.89627888421977
H            6.79065400816801       13.60508891405119       -3.99271156268071
H            7.90914616706825       14.53303918763658       -4.99755855015903
H            6.88006830864528       13.29817149701194       -5.73181828008358
H            4.63064807119513       20.18392850427863       -2.20884263071055
H            3.07637659944101       19.35368345461444       -2.05740869448013
H            3.23326753437817       20.74627014028179       -3.13095751370039
H            5.96096119845367       20.23559247971792       -5.00670454922796
H            4.39792251538624       20.60213920185704       -5.74674576247717
H            5.33117531498203       19.20504419848621       -6.29505288228726
H            2.09886110411311       17.47378799847992       -4.24982817080982
H            2.81125123117486       17.63837172060231       -5.85959269161535
H            1.96343518119064       19.00372316950842       -5.12501894486984
H            7.13588064642947       19.04448907681234       -1.08637392109312
H            7.30055245703953       19.99335756407065       -2.56826100590140
H            8.74254058496605       19.44085563319917       -1.70868181086237
H            8.01818772041827       16.11507147143990       -1.06384107172554
H            9.58134140256919       16.64019912840530       -1.70173117322529
H            8.66253794926380       15.37978073706901       -2.53398200500811
H            8.32334167329175       18.67119322456065       -5.13058628176507
H            8.89870425514907       17.00209795218999       -5.07165675286441
H            9.76802535988474       18.26628207473494       -4.19509300247632
H            6.18022122071588       -0.49060349961772        2.62285755855589
H            4.99207416453241       -1.30420365050280        1.59542809967227
H            5.02556238788959       -1.62253790254629        3.33347838405925
H            5.47074618938452        1.87010488768900        4.26753931576541
H            4.59612592334889        0.66874832863209        5.22522620058425
H            3.78445365033789        2.15111094225578        4.71084222435919
H            2.04938159307428       -0.94476756512285        2.42211212469792
H            1.53122970207658        0.50620624771409        3.28619435762707
H            2.35523405982714       -0.79379397880580        4.15419116737043
H            6.26954860245079        0.25097471444391       -0.98835065401923
H            7.16022827849721        0.22934642581443        0.53667314022238
H            7.82445346919629        1.08087643079691       -0.86016371576084
H            5.49833953242554        3.02179954791523       -2.11939689794079
H            7.02404107061784        3.74872286396735       -1.60423408254752
H            5.48980556036784        4.43780183518345       -1.06186109623710
H            7.24197563493086        2.57707337389757        2.33360575424616
H            6.67522632479455        4.15892760196745        1.78690659799671
H            8.10305690718566        3.42690265767075        1.04446450265599
