101
 energy: -15.256289083056 gnorm: 0.000838850742 xtb: 6.5.0 (97a52f5)
C            1.50767648442472        0.15734415148362        0.72493067606404
Si           3.04493120282894        0.19849689348037       -0.33527695792963
C            4.34806130482885       -0.77259269717755        0.58435862348328
C            2.65017755374549       -0.76466267369364       -1.88564144462676
Si           3.74418047513113        2.35489458796763       -0.83775487048135
C            2.71096602166959        2.90161550998430       -2.26554023803292
C            1.35897065304597        2.85190062884177       -2.28883747841309
C            0.77998138635014        3.33336988489029       -3.49565221666705
C            1.69956331966862        3.75693113863741       -4.41380235910147
C            1.41379751789195        4.29563117080603       -5.72297062201107
C            0.17075930113134        4.49598013430064       -6.26116430928648
C            0.18951524357006        5.04043102955042       -7.56644306949437
C            1.44735811048703        5.26860087346382       -8.05700443111600
C            1.77077047585089        5.81398343325331       -9.35469936594673
C            0.87745456141351        6.20752256535385      -10.31134165932347
C            1.49075500792226        6.70006312415353      -11.49654914394435
C            2.84360151307213        6.68782661520246      -11.46556048667049
Si           3.91744328401943        7.24925355012757      -12.85729943684191
Si           6.13918185218319        7.22721748720395      -12.17383100830456
C            6.66739904588068        5.62531072728681      -11.37063147798989
C            7.29990847669902        7.50016208553127      -13.61106821531915
C            6.48974055733937        8.58108597094148      -10.93644907177148
Si           3.55478568969332        5.76908622285613      -14.60824458144600
C            1.74768494588461        5.36219218898381      -14.84829028936070
C            4.17562262486251        6.44997652516348      -16.23274076849435
C            4.43325712650494        4.14431845167382      -14.33436638595758
Si           3.23493399134929        9.40720754324749      -13.37802561254178
C            1.68153209589259        9.45286054049937      -14.41475582107845
C            2.88071651289401       10.40123788432610      -11.83738556155000
C            4.53868803797575       10.34182718630746      -14.33433368109297
S            3.39945327063663        6.06830475438814       -9.94034350348113
S            2.63494501111465        4.79504643416367       -6.86701921149681
S            3.31012797766622        3.54911701138280       -3.76263414409998
Si           3.31330325733465        3.85444667257645        0.88151961680339
C            3.92144104227828        3.22246547131481        2.53051660840616
C            4.15086221794892        5.49828051403903        0.59374505143070
C            1.49115212839657        4.21426128814540        1.07839215956166
Si           5.98347939934687        2.38049955712823       -1.46387147206691
C            7.11339872875116        2.08703996440144       -0.00606436966743
C            6.35612512295992        1.04222966637763       -2.71176326180914
C            6.53322653918155        3.99071974523748       -2.23501061874743
H            1.22621419457353       -0.87026826096862        0.93812265907238
H            0.68421668137899        0.64586997564248        0.21160722867429
H            1.68937718253600        0.67269105980216        1.66405126561335
H            3.97464043702340       -1.76266595009906        0.83065141349897
H            4.61248497266531       -0.25813115307016        1.50417876252431
H            5.23848343992368       -0.87748003571395       -0.02918929517491
H            2.34466803990517       -1.77656093570887       -1.63375726988264
H            3.52540709809008       -0.81106160034709       -2.52783927952547
H            1.84398621480041       -0.27903512385044       -2.42863320066853
H            0.77586149312296        2.47916293986717       -1.46008453486736
H           -0.28453578637601        3.36102638226215       -3.66883341900019
H           -0.74171987028749        4.26238535123217       -5.73505181660926
H           -0.70728977606285        5.25636422550684       -8.12594782274578
H           -0.19202974336758        6.14786692036157      -10.18205711011375
H            0.93136301985486        7.05111968923166      -12.35066474114251
H            6.52030846965404        4.79600429496667      -12.05676845179659
H            6.07887495893766        5.44633913616462      -10.47515293939039
H            7.71776929862048        5.67101333752310      -11.09598955366018
H            7.21620332309070        6.67757107857657      -14.31611811039162
H            8.32674579811901        7.55736111328624      -13.26032981512491
H            7.05120430460716        8.42586196644314      -14.12261224060631
H            5.83524696843511        8.47339686207859      -10.07566099005859
H            6.31751259071906        9.55428292589196      -11.38798552970595
H            7.52223250973840        8.52754226867699      -10.60194509812988
H            1.18140812043762        6.27075874494997      -15.03354146660646
H            1.35436529770804        4.87980150080019      -13.95761069815326
H            1.62193205058047        4.69214761926932      -15.69436019669198
H            3.63886530630108        7.36051275796741      -16.48464662803039
H            4.02694435256010        5.72340864683672      -17.02692458575546
H            5.23535476964640        6.67866654755583      -16.15933491715482
H            4.15476881682525        3.73224657817607      -13.36811748603046
H            5.50916460765773        4.29451417555324      -14.35559891271049
H            4.16309816471606        3.43377737936636      -15.11078118722512
H            0.85371842149702        9.00661370390911      -13.87086026962430
H            1.83341178213623        8.89937438648391      -15.33726240070477
H            1.42547070045018       10.47971230898154      -14.66101410658369
H            2.09206052288572        9.92425821889298      -11.26170535521251
H            2.56455428371854       11.40665888761899      -12.10171780058745
H            3.77346613477429       10.46389993844076      -11.22113707412294
H            4.79109143940087        9.80082169419524      -15.24244468651566
H            5.43592509444062       10.45344769205528      -13.73184289145072
H            4.17277233111991       11.32890648655651      -14.60369343260925
H            4.99207264300826        3.04167552621080        2.48756841026835
H            3.42029563278306        2.29148179487485        2.78104910547925
H            3.71930038328681        3.95142305335187        3.31065999009262
H            5.22975531526440        5.38075580242186        0.64710068045318
H            3.83932657743138        6.21718588836777        1.34664936243197
H            3.88679606170888        5.88087985409989       -0.38858443840645
H            0.94678323365013        3.29345599348398        1.26903128843402
H            1.10296939789431        4.66933146714026        0.17114766335434
H            1.32958613905209        4.89583231805990        1.90910562201803
H            6.85346996790769        1.15493456050112        0.48843098263245
H            7.01592375309062        2.90068040906617        0.70802482988656
H            8.14731198416722        2.03332320908671       -0.33668557909659
H            6.14604947143014        0.06493577825833       -2.28610041916402
H            7.40206764376901        1.08021213156009       -3.00378263363700
H            5.73886288601599        1.17915884490329       -3.59555677021240
H            6.37613104285258        4.81155387793772       -1.54088342249119
H            5.96262310688913        4.18391438910121       -3.13919285345636
H            7.58851767336152        3.94422755230474       -2.49006342299261
