94
 energy: -13.780103006099 gnorm: 0.000832020698 xtb: 6.5.0 (97a52f5)
C            0.85286115583246        1.00929363050625       -0.02092325746179
Si           2.63131295846621        0.44837839975519       -0.11592971028328
C            2.60758783751367       -1.31343966002483       -0.73565971083700
C            3.43215475970440        1.48051480618199       -1.45071761786256
Si           3.66700333346142        0.68166100411045        1.95112252302084
C            3.10949288867306        2.34653622547625        2.52079642013306
C            2.40050348884708        2.61909865076125        3.63996037903339
C            2.10512498891496        3.99980050647389        3.81713877124747
C            2.59634264122610        4.79758126318361        2.82335379132219
C            2.45179745233748        6.23418883206531        2.72797517788755
C            1.77371601626686        7.03799937784391        3.59930829804083
C            1.79617272023451        8.41521988217687        3.24167809503622
C            2.48429853883405        8.68035886869284        2.10742377127359
Si           2.68473949943898       10.36111080916293        1.37120946373759
Si           4.58738656068078       10.38398968197306        0.03455612942115
C            4.68369926216419        8.97537048216549       -1.18896677289478
C            4.70410294635820       11.95397465935062       -0.97049440674793
C            6.13937518350404       10.29124004176425        1.06880384522835
Si           0.74962667676047       10.71133959576988        0.14090618765108
C           -0.77191230575735       10.20930749716038        1.10042604070240
C            0.52256307404476       12.49947022242995       -0.34857730546292
C            0.73986052506551        9.71252917933612       -1.43683824880785
Si           2.89069212557122       11.87482299342267        3.12298693042540
C            1.25035426281589       12.36516399438511        3.87143067522585
C            3.93552841071405       11.19079297455378        4.51183898016167
C            3.70839122432135       13.46159960529618        2.57382640473974
S            3.13370710525145        7.21019190596005        1.44642997214126
S            3.44344951613859        3.81397202375571        1.65076766643603
Si           2.95407815337160       -0.95709900376028        3.44027697295795
C            3.48751311388457       -2.66376625074967        2.89977990559320
C            3.65249596721628       -0.71990189534795        5.15679237075958
C            1.09454565314235       -1.03010948642191        3.60583200739597
Si           5.98358626701437        0.86022877951055        1.95720116471787
C            6.85630058485329       -0.78833922791463        2.05224248667499
C            6.64567221087488        1.73603133726758        0.44657985423658
C            6.55212598896799        1.85535310359203        3.43146268487976
H            0.37345726490266        0.91020125546161       -0.99108971100321
H            0.81035206423434        2.05031408502346        0.28814775989913
H            0.31014897362116        0.40725590450579        0.70270317056967
H            2.22922529999484       -1.34927486536651       -1.75377098037081
H            1.96710129298704       -1.92168022450665       -0.10268630226614
H            3.61309669389103       -1.72578098412615       -0.71872137260430
H            2.81352010740416        1.48768210307429       -2.34410763413291
H            4.40687853804844        1.07311620799237       -1.70400851697407
H            3.55738087952530        2.50212516224887       -1.10213037403985
H            2.08623038705440        1.85377805809640        4.33253580445819
H            1.54538731781564        4.38008644167872        4.65745222694026
H            1.26393855660674        6.66426216543856        4.47362168237328
H            1.30398622403767        9.18435790721471        3.81744211654389
H            3.79935728107187        8.96750744518995       -1.81997037763747
H            4.74510914285498        8.02803789773847       -0.66058664031507
H            5.56339018481236        9.08389632368542       -1.81773281172081
H            3.86909473721965       12.01320961296540       -1.66344697237794
H            5.63179721476158       11.96895320053071       -1.53627463097840
H            4.67838648823668       12.82142582123387       -0.31687440368582
H            6.12336164649619        9.39032432933822        1.67645594587198
H            6.20413048311296       11.15536874215582        1.72432787828113
H            7.01802815022374       10.26929279736717        0.42973249921531
H           -0.84866001681113       10.79599764312572        2.01177964177880
H           -0.71054363819897        9.15729462130972        1.36609088558696
H           -1.66532700520656       10.36968090322178        0.50292347205527
H            0.46502371369245       13.12547302032293        0.53773802313486
H           -0.39256977877624       12.61862945085254       -0.92244612387566
H            1.36255106468780       12.82815651367768       -0.95464405944703
H            0.93619669264761        8.66726688436257       -1.21284369318405
H            1.50883330635478       10.07832595703396       -2.11196644548734
H           -0.22602440116660        9.79254345574066       -1.92845306990050
H            0.73608967967725       11.49164688562921        4.26232566211803
H            0.62294820218043       12.83173434653215        3.11684975320349
H            1.40532587034450       13.07128557977622        4.68279080973304
H            3.47661603701807       10.29334279323096        4.91749810168149
H            4.03415831757922       11.92496772501595        5.30685776961274
H            4.92560939933235       10.93888815197046        4.14150774697144
H            3.16332626730903       13.88782729846752        1.73560967822412
H            4.73190862942547       13.26712824181635        2.26489861327290
H            3.71911128003925       14.18075096605109        3.38851807216588
H            4.56995551840879       -2.71133108413499        2.81987350331372
H            3.05532942723729       -2.90283262795792        1.93205645560473
H            3.15756677892869       -3.40542966016233        3.62241555717651
H            4.73825300310563       -0.74265520123655        5.11840801451483
H            3.30894386716536       -1.51406121164601        5.81417764449391
H            3.33800120858744        0.23515475902928        5.56797370086033
H            0.65267969544602       -1.32667853725587        2.65838453592669
H            0.69892589552731       -0.05814743462461        3.88695330576795
H            0.81381596276073       -1.75590483414950        4.36436109315483
H            6.51844048857616       -1.43384522148554        1.24574828630996
H            6.64091978669270       -1.26991813539330        3.00226823356288
H            7.93063774449894       -0.64942238270850        1.96539651829849
H            6.51657428655531        1.11071339245373       -0.43253034424415
H            7.70344438887285        1.95211521356465        0.57040362937842
H            6.11094187836929        2.67018404113087        0.29670417178909
H            6.23021211061036        1.37473184423926        4.35129474377708
H            6.12448334233820        2.85354498625803        3.39046916224093
H            7.63566128045559        1.93729745931115        3.43669865458700
