42
 energy: -8.448591085637 gnorm: 0.000754399077 xtb: 6.5.0 (97a52f5)
C            1.08547739335847       -0.67504893563066       -0.14931670551327
Si           2.89425313845240       -0.20446160271114       -0.23556893572201
C            3.41849260596999       -0.02946079569202       -2.02334598759882
C            3.15736686336832        1.41414869868580        0.66782544780439
C            3.90290968475598       -1.53781199100562        0.57804925106597
C            5.03559953647750       -1.35032817737300        1.33202176571558
C            5.45495642417425       -2.61118765404359        1.81887301856818
C            4.53803302393322       -3.56472065654673        1.32271784697733
C            4.66199027193627       -4.91993834872043        1.63089590481723
C            5.70222254352041       -5.34224696787289        2.44791828771185
C            5.86301820967318       -6.72237724050546        2.79918371327470
C            6.86786680615638       -7.13325336981839        3.60183468008603
C            7.82105622015020       -6.20616684244557        4.13765946548357
C            8.86171643197843       -6.61161971518629        4.97006899020554
C            9.76667527648752       -5.69404494387145        5.47268794696553
C            9.65921395135722       -4.35789745987246        5.16134975456778
C            8.63104151899359       -3.89645781277615        4.32942150551450
C            8.48922286576011       -2.51981327459102        3.98925643284172
C            7.48132476757757       -2.09764495961521        3.18645913882350
C            6.53470046667330       -3.01301233688413        2.65692375212629
C            6.64234305115854       -4.38705040563889        2.96593046763528
C            7.70030915988900       -4.83055645063019        3.81133566197983
N            3.59957913389282       -2.87799455557838        0.56115400527161
H            0.47111448241943        0.11978592262908       -0.56290146815942
H            0.79668363879224       -0.84121491123826        0.88475817137556
H            0.90890969888912       -1.58557486758758       -0.71462584285154
H            2.83258436672749        0.74524368520088       -2.50993265931617
H            3.26626700193231       -0.96812543940576       -2.54841165883372
H            4.46978745576278        0.23814659952777       -2.07900297648542
H            2.50951934231114        2.18139140294600        0.25352684122933
H            4.18984724448237        1.73692591375359        0.56876044471686
H            2.92727235528442        1.29140712478954        1.72255349906429
H            5.50733032242869       -0.40419255451738        1.53371034577576
H            3.95202336328226       -5.62481772219966        1.24039866533883
H            5.15737595165777       -7.43594282555455        2.40956772182850
H            6.96699972427531       -8.17497975879674        3.85407246777062
H            8.95509839489976       -7.65442199759678        5.22050768669003
H           10.56426172017572       -6.03009488023476        6.11520354966751
H           10.36815371143283       -3.65112941511993        5.55722257019375
H            9.20007395513048       -1.81410802643879        4.38355950606403
H            7.38641151510531       -1.05458563637563        2.93977041302454
H            2.80252640931497       -3.30714681545765        0.09173731430692
