77
 energy: -14.879613393172 gnorm: 0.000442848938 xtb: 6.5.0 (97a52f5)
C            1.24400179333346        0.61801247143407       -0.18050684240924
Si           3.07900452822276        0.32328387801166        0.04605854849887
C            3.87107027046258        0.11091769466420       -1.63871292036254
C            3.84518525788829        1.79840482759705        0.90698739820770
C            3.32977805822036       -1.19153459396825        1.09528595074765
C            4.11617525814999       -2.24131030774477        0.66698160590227
C            4.27708560417299       -3.35951716227286        1.45821951735929
C            3.65092807170710       -3.45109381775287        2.70140309922313
C            3.81223754095551       -4.65447360644264        3.54805074901066
C            5.03735182888482       -5.31512844553426        3.63646740421822
C            5.18522951347191       -6.43785715778572        4.41613121764172
C            4.11395720962255       -6.95909305023271        5.14934463843231
C            4.26578805847099       -8.14949953729939        5.99837482377341
C            5.50850542973651       -8.58673291647241        6.41179580208298
C            5.69242643771432       -9.72070866205637        7.20935019442684
C            4.64742414523026      -10.50118797897196        7.66226470149097
C            4.88317094718359      -11.70196322016342        8.47680558352003
C            6.09083633608729      -11.90694441269936        9.15210712739065
C            6.31776504543990      -13.05382974756759        9.87561677309676
C            5.35029334264851      -14.05472930768542        9.96460762707516
C            5.60023212981666      -15.29347330875861       10.73486652906957
C            6.32204722565685      -15.26478709260349       11.92831979554461
C            6.55601757167412      -16.42245455276669       12.64077953594902
C            6.07867998919897      -17.63267840318330       12.18121634982012
Si           6.36875480529371      -19.20750380760403       13.12712468685162
C            7.67080004589122      -18.96058179049436       14.45161530427656
C            4.76414609659739      -19.73988173290344       13.93069407641027
C            6.95034756037226      -20.54343884394098       11.95051373794167
C            5.35864932191634      -17.67804969889109       11.00537620971514
C            5.12126796030366      -16.52471909716496       10.28715075740421
C            4.13893431435474      -13.84932048943471        9.30524065257652
C            3.91387499344333      -12.70074299436871        8.58665537932709
C            3.31798955782958      -10.09677441171796        7.27558470116517
N            2.18053666166299      -10.68433343346277        7.59686734116955
S            0.95323549265003       -9.83777551709684        6.91069900365011
N            1.85483337593608       -8.68037719492491        6.17513114956570
C            3.12606553588464       -8.91428345519055        6.44250291682250
C            2.88887372809017       -6.29777317061316        5.04511125351609
C            2.73901016846397       -5.17284189713904        4.27161373414541
C            2.86333453839251       -2.37905153244785        3.12115422702477
C            2.70812781317001       -1.26352380354495        2.32487451620145
H            1.08145089953921        1.47878037012212       -0.82291014143438
H            0.76939956721081        0.80287335001098        0.77880397063933
H            0.78410943544989       -0.25377291609751       -0.63729229393195
H            3.68404175661991        0.98997145282094       -2.24892631176838
H            3.45392298924358       -0.75754874464064       -2.14064640840251
H            4.94453176502887       -0.02119618205189       -1.53755102127644
H            3.70730360951325        2.69433690376182        0.30835076104677
H            4.90894602508257        1.63194463600295        1.05143222534047
H            3.37909103440204        1.94881767814201        1.87648691988918
H            4.60141433244269       -2.18221803717238       -0.29219440291784
H            4.87880968854482       -4.18165397125968        1.11149729123781
H            5.87946449405980       -4.92739118723549        3.08946371420936
H            6.13868010039590       -6.93427539219809        4.44267081872543
H            6.37838325063369       -8.02362933448935        6.12471666578914
H            6.69880681952822      -10.00805584117208        7.45605803345233
H            6.85218192508080      -11.14815327731104        9.12112993748445
H            7.26191459046376      -13.19509678135888       10.37284135387624
H            6.68576035789979      -14.32271122032036       12.30012703844022
H            7.11072425145106      -16.38867135054572       13.56280078795384
H            7.32376602612384      -18.24758260626561       15.19399879461613
H            8.59032255664253      -18.58936688566848       14.00802106064279
H            7.87792419794391      -19.90524772972620       14.94646368216146
H            4.40836597896153      -18.96098119947093       14.59915286956719
H            4.91615393120111      -20.65123283363781       14.50197912232388
H            4.00847709513569      -19.92262668954600       13.17210148523237
H            7.82531760399643      -20.20010279426711       11.40584425081637
H            6.16711703574029      -20.78732846106372       11.23858437887406
H            7.21109629115692      -21.44093809521715       12.50418392578144
H            4.98307185741671      -18.62440882465233       10.65429369563767
H            4.57300182423323      -16.57107661848860        9.36232437620266
H            3.36884899643481      -14.59768528801823        9.37905571336647
H            2.96965169355685      -12.55901365047247        8.09660423656901
H            2.04387682761251       -6.69041631319717        5.57736760649823
H            1.77861433716429       -4.69206122304902        4.20032628486095
H            2.38413538893336       -2.42389955944703        4.08377464265172
H            2.10077790098281       -0.43813010152762        2.65665007835205
