41
 energy: -7.913605055757 gnorm: 0.000836365482 xtb: 6.5.0 (97a52f5)
C            0.60153169295129       -0.51807017227292        0.45272134056166
C            1.79743233544064        0.37542646916831        0.53249136111951
O            1.88822320320483        1.31463674518258       -0.22754429969977
C            2.83673373360105        0.08225108930172        1.54424668954836
C            2.69547960604992       -0.91748635981440        2.46938879236344
C            3.70264860334967       -1.20908974156092        3.44797914735988
O            3.54453751282682       -2.11877890745631        4.26618298921004
N            4.86841382214105       -0.43682002845471        3.44539249304281
C            5.89429875763410       -0.71190721244655        4.43382433349157
C            5.03330603787806        0.58912813658820        2.50144341104327
C            6.16464679568113        1.44785054181473        2.36128376335740
C            6.05374495962092        2.36790226557063        1.35530812018177
C            7.03450713798829        3.36721528817374        0.96869346020534
C            8.31475594989580        3.40416391222196        1.52840920287558
C            9.22732776012205        4.35346354007860        1.14304048557216
C            8.90766839571257        5.31756352822296        0.18046191922537
N            9.84383564123361        6.28868237226488       -0.21465407583111
C           11.23052845437832        6.25352824808316        0.25197384799480
C            9.47899390368087        7.38610315400461       -1.11132636793607
C            7.62541884273574        5.28012774660374       -0.37761580407812
C            6.71626598462489        4.32809033478655        0.00634095274465
S            4.50791554459457        2.16650344659680        0.56907445325154
C            4.03109632579587        0.84058925176235        1.58200696034399
H           -0.02872165050397       -0.22193475218353       -0.38467720824479
H            0.00245223949072       -0.45385279577385        1.36049534967938
H            0.89516021519943       -1.55600327222964        0.29859115445398
H            1.80643241920234       -1.51803268847106        2.48640567237008
H            5.57070088593447       -1.52540697118299        5.08059604718289
H            6.07209388245573        0.17134890158983        5.04416693566923
H            6.82041925277808       -1.00237308154776        3.94183215190140
H            7.02524619846368        1.37226024531777        3.00339939557723
H            8.58868564302717        2.67190854384425        2.26697692123859
H           10.20305338352179        4.36369211636312        1.59436399573268
H           11.64824145072924        5.25950892766277        0.10686668872482
H           11.27498783843633        6.51129887362611        1.30801587816955
H           11.84556662456863        6.95876540207572       -0.30249485723952
H            8.58336704484783        7.88410371419194       -0.74585131647951
H            9.29395708377077        7.00342746888330       -2.11284824462275
H           10.27479348394607        8.12554629366808       -1.16604294635174
H            7.35335553328904        6.00241317601179       -1.12596875302030
H            5.73531746970355        4.31035624973592       -0.43534004067792
