71
 energy: -13.471862485392 gnorm: 0.000681994247 xtb: 6.5.0 (97a52f5)
C            1.69727155685757        0.61728411423666       -0.63162281325155
Si           3.48697368786079        0.73459838862064       -0.08929861749818
C            4.43457970429576       -0.73366477203631       -0.76045220311110
C            4.22035765446651        2.31778548008214       -0.77109097390600
C            3.61076779472323        0.73955093773628        1.76631420979317
C            4.77446345425834        1.17410707115061        2.36709980546988
C            4.88612956295379        1.18304263249686        3.74098214309812
C            3.83440957584816        0.75133754210090        4.54977472156698
C            3.97103602411269        0.77378548331092        6.00106812390552
C            3.07155526919377        0.30057966114467        6.91932563181292
C            3.48155800169528        0.46059963264818        8.25989957838643
C            4.70227287349132        1.06323804064834        8.41183379180742
C            5.36334770151516        1.35523738764190        9.66129174875886
C            6.59151010318878        1.98928892115411        9.67626257852464
C            7.27098951444456        2.28867225182569       10.85735265914736
C            6.77165269712057        1.97313692991188       12.10707048078498
C            7.51407908038462        2.30280927256530       13.30021002690488
C            7.13828678930680        2.04123750780419       14.59105409979784
C            8.06018772475266        2.47670318600704       15.56619978554632
C            9.17355206419616        3.08539621247842       15.05003002479017
C           10.29586468748370        3.63519731153723       15.80078202966958
C           11.35340475845927        4.25151290217299       15.13101157586019
C           12.42034091209417        4.78224014727891       15.82428734370196
C           12.45865211545083        4.71277838728881       17.20184438926533
Si          13.91523583458666        5.41997356323111       18.11656780897431
C           14.39491798845880        7.06680983094241       17.36447906313013
C           13.49470598131212        5.68239659043620       19.92354302415629
C           15.35441111958503        4.23072432631700       17.98101647480956
C           11.42517126421008        4.10063367979857       17.88154279981773
C           10.35480764070453        3.56754873782361       17.19463264191003
S            9.05999802577515        3.11348100137454       13.30756740059619
C            5.49210356462050        1.30883003083351       12.16638924571635
N            4.84158511142405        0.92013635933864       13.24507315289674
S            3.43498138388837        0.21830533713699       12.76543279994107
N            3.62750833008349        0.39519755814227       11.14270659032904
C            4.77958508971933        1.00036365987050       10.93226940820450
S            5.35540575412904        1.43326588653786        6.83589637046420
C            2.66626950167221        0.30932466075027        3.92480043469740
C            2.56102091883807        0.30462332477507        2.54972752111783
H            1.63035095104910        0.71481930293385       -1.71140555581150
H            1.11612738907195        1.41137307136218       -0.17155150674290
H            1.27573811341498       -0.34096755296371       -0.34207982563731
H            4.37434874827309       -0.75526989186936       -1.84478698880559
H            4.01702158335213       -1.65577242889701       -0.36639311720390
H            5.47854867041246       -0.66922788353096       -0.46754358521136
H            4.06395062910003        2.36861330021318       -1.84473714395263
H            5.28723772160656        2.35873986203640       -0.57179528399338
H            3.74380723649898        3.17580608742953       -0.30563753860293
H            5.59501374758460        1.50318233926778        1.75214969355767
H            5.79313619198641        1.52523593463987        4.20740701977329
H            2.13520947855960       -0.16092167315668        6.64828727857779
H            2.89137784863189        0.13777112959430        9.10058425847091
H            7.03330038679140        2.26046885268204        8.73366420212466
H            8.22409577584236        2.78455937916465       10.80301348266632
H            6.21380195510777        1.54438353611099       14.83164420109193
H            7.89630518027830        2.33941436904722       16.62329741522355
H           11.32495072895403        4.30821016876894       14.05705515185848
H           13.23285934785349        5.25209637829668       15.29622191389599
H           13.53795408619085        7.73432864488369       17.35814829205297
H           14.74212495701220        6.93148095454064       16.34432545253974
H           15.19100361159786        7.52339361346478       17.94561352528871
H           12.60188996158189        6.29478803809715       20.01326722334119
H           14.31586559966010        6.18600623382018       20.42571077306485
H           13.31931579321777        4.72900520533945       20.41369214662948
H           15.63056810220138        4.09717201421054       16.93906613804509
H           15.07846842563455        3.26589223488754       18.39674366953633
H           16.21188774140653        4.61586090038016       18.52530913785155
H           11.46291483110240        4.03960198484127       18.95586828746075
H            9.55626761401535        3.09440386093510       17.73776240850450
H            1.83834025217033       -0.02687195879641        4.52318889212584
H            1.65712652273791       -0.04004518486771        2.07712510475006
