71
 energy: -12.757297198583 gnorm: 0.000542919635 xtb: 6.5.0 (97a52f5)
C            2.22814751949369       -0.46332924916577        0.42135555200272
Si           3.97614938818609       -0.14532570402146       -0.17624344131164
C            4.84775871418041        1.00037569098919        1.02153250655771
C            4.90640125614061       -1.76708285936742       -0.28368678093141
C            3.95576355755976        0.64558861113131       -1.84910306907733
C            2.83371312480057        1.03308585258166       -2.53092005911620
C            2.86813554784994        1.65466094364842       -3.77065952131435
C            4.02254169867368        1.97717165085720       -4.50653709381530
C            3.90241179033348        2.65740965295010       -5.81732023943665
C            2.72367216621702        2.80702762085429       -6.51550273295137
C            2.99128862729783        3.50320462826462       -7.68880415784413
C            4.34154363759164        3.79224518547106       -7.73244618107907
C            4.97435226147349        4.53547005506001       -8.81973280110037
C            4.22464577552866        5.27200326325273       -9.71819774267956
C            4.79372053622735        5.99649372063793      -10.76633427179411
C            6.15603109562802        6.03629119628887      -11.00058459315548
C            6.71496894827631        6.79991889522451      -12.11333303698262
C            5.98879639031793        7.70611998825298      -12.86196097402076
C            6.81739633395414        8.23768728165305      -13.84370250806918
C            8.06537099470106        7.66683396213681      -13.71896306223444
C            9.21972785769551        7.96857743099923      -14.59741097225327
C            9.02995266936658        8.69378854619113      -15.78755057109149
C           10.01362241988654        9.03527158233687      -16.70426107357289
C           11.33136375736884        8.69538199984213      -16.55924159277972
Si          12.64703946333285        9.11537733015296      -17.79012298903402
C           12.78707216334995       10.97815172325700      -17.92991268216300
C           14.28652832479920        8.40347658666453      -17.22932490020999
C           12.18658374658536        8.38548752848262      -19.45275643170928
S           11.68964467559841        7.84021656268127      -15.20176727524674
C           10.44422519407865        7.52127663953251      -14.23683269614798
C            8.11181472492432        6.70571313544856      -12.59514389800977
C            6.99927338052799        5.28826814004854      -10.10060439741760
N            8.31344945430999        5.19508961492575      -10.13154716067856
S            8.78853863862593        4.23563103473932       -8.88529716516522
N            7.30186582431910        3.91003901788353       -8.26618610256925
C            6.40529934338333        4.53887864286859       -8.99923813950046
C            5.04179857540622        3.26590522218540       -6.53907497855690
C            5.25726369215587        1.69241738846113       -4.03373806193085
S            5.38066158875087        0.96806346174795       -2.60362979767222
H            2.24990394383063       -0.94026714474091        1.39700063172821
H            1.70741766835552       -1.11447265570932       -0.27489510656898
H            1.68396676313257        0.47325341313445        0.50230781440700
H            4.86641667195882        0.56132767303797        2.01487415369257
H            4.32805050496986        1.95307579618978        1.06731898642835
H            5.86887696161416        1.17392452766917        0.69455990989372
H            4.92721595627572       -2.25303502352125        0.68749029002632
H            5.92711358609361       -1.58996746601233       -0.61001411098713
H            4.41996815993153       -2.42629205307372       -0.99688811636515
H            1.87457967000163        0.84532176166478       -2.06915690290307
H            1.92210268350250        1.92822421921824       -4.20475369720687
H            1.75703050967140        2.43558242216752       -6.22170423306908
H            2.26474206010732        3.75193895532470       -8.44325948319907
H            3.15653738923966        5.30110496145304       -9.59610470114573
H            4.13986015383735        6.53540988514307      -11.42828373766277
H            4.95827484473108        7.97702072801086      -12.70939920101426
H            6.52499276721399        8.97973508885532      -14.56647907284959
H            8.02413396450521        9.00144741574645      -16.01516245267609
H            9.73511369883728        9.59611057611225      -17.58593513509269
H           13.01850944866449       11.40600650293616      -16.95886056080093
H           11.84998351116763       11.39824781254267      -18.28336946515533
H           13.57595718974920       11.24285204885431      -18.62797800317254
H           14.56096138785968        8.81752055469933      -16.26345392969876
H           15.06472591861040        8.64262324768452      -17.94836851079145
H           14.21114159749269        7.32370144399172      -17.13915318715802
H           11.25843476815405        8.82227549047495      -19.80955240251125
H           12.05584734448654        7.31104035981894      -19.36182204923864
H           12.96972375661217        8.58426729586821      -20.17859159743725
H            9.56080886205058       -0.26008208731188      -16.80669695669575
H            5.46453129337018        2.99589462132553      -11.52491095070239
H            7.61255513774268        6.95594623412598       -7.89485328234510
H            8.94554697100023        8.35911142143014       -1.77687984496495
