47
 energy: -9.313039932994 gnorm: 0.000696474378 xtb: 6.5.0 (97a52f5)
C            1.05499498865667       -0.30366847097206        0.13402316700804
Si           2.91480153417262       -0.08243172054471        0.10637292559587
C            3.52511753485217        0.29153794309029        1.83590030041728
C            3.69634961872723       -1.67324969194846       -0.50129462366829
C            3.36648710644074        1.32903620318731       -1.01737773241690
C            4.51346283388670        1.27287341989553       -1.78311182177679
C            4.84082135535746        2.31542175077175       -2.62244819158757
C            4.02099670382307        3.43844122479756       -2.71665252056544
C            4.34724954078955        4.55410205919090       -3.60735343299119
N            3.91658345597336        5.78780460705954       -3.41210425539356
C            4.42973671239549        6.54150203186770       -4.42849541364163
C            4.28113035404739        7.90834494414893       -4.71031611979967
C            4.89320362392893        8.42577985316572       -5.82281975797019
C            5.65695201797647        7.61578189682566       -6.67559948367159
C            5.81863305053990        6.27853781860393       -6.42076418034657
C            5.20573073986719        5.73737375344346       -5.28792326406693
N            5.14831668305749        4.44968321522170       -4.76620566572061
C            5.70009623614723        3.27381242338042       -5.39187071288829
C            7.06788731818790        3.16883175118321       -5.61372105877421
C            7.59637991537206        2.03762708894121       -6.19572513299990
C            6.76598225431913        0.99775631888065       -6.56663304310976
C            5.40397874879340        1.09341652692456       -6.35697250343863
C            4.87365545400375        2.22419174073700       -5.77611962632432
C            2.87824379582755        3.49046300904969       -1.92178810775021
C            2.55626863952553        2.44482451183722       -1.08289626291358
H            0.79448792871335       -1.18201353800627        0.71758961778614
H            0.68282373398620       -0.43209846887078       -0.87840039020753
H            0.57503538315664        0.56380987396372        0.57740988179060
H            3.25700146712182       -0.51661825091000        2.51056887066754
H            3.07842374390414        1.21356919448051        2.19692203892636
H            4.60571245775782        0.40315441766357        1.83230390891240
H            3.34523601121027       -2.51079751675402        0.09461051071943
H            4.77822310178927       -1.61939916647750       -0.42218784622523
H            3.42692971375532       -1.84484158649851       -1.53960446634198
H            5.15095611349119        0.40754431040166       -1.71900427558952
H            5.73888541392750        2.27085951652373       -3.21154157836934
H            3.69114033432174        8.52409760374771       -4.05536083722678
H            4.78439215657480        9.47377673321293       -6.04933000887058
H            6.12157805291762        8.05235851561493       -7.54445995045049
H            6.39765027381172        5.64584291812014       -7.06946728157408
H            7.70685721079006        3.98197984077440       -5.31597125153294
H            8.65902342802086        1.96320259838699       -6.36017285647120
H            7.18077758646119        0.11194423057600       -7.01944302092482
H            4.75561557377644        0.28228044849302       -6.64577453202723
H            3.81456127043723        2.30793879020194       -5.60466494551825
H            2.24576265026897        4.35903306068190       -1.97745480595273
H            1.67073617712617        2.49096226592563       -0.47192026271654
