42
 energy: -7.102384023750 gnorm: 0.000720801172 xtb: 6.5.0 (97a52f5)
C            1.40330282937440        0.90646968274173        0.16645110181360
Si           3.02496114812461       -0.02289440875776        0.03313131014193
C            2.81464606829114       -1.33586679345487       -1.28767712010232
C            4.39680727845676        1.12357279247005       -0.53644396478548
C            3.45652540461179       -0.79767878415932        1.67658716542311
C            3.48995550797107       -2.15677141827737        1.74040837257171
C            3.81685474113628       -2.81673921095237        2.93402033490159
C            4.11143322397083       -2.11836588557009        4.06453469903879
Si           4.52870976788438       -3.09701549730636        5.59951112080222
C            6.28600094641188       -2.73685965424173        6.14313507695563
C            3.31505939770233       -2.71267932740623        6.97627825259714
C            4.41652577288819       -4.93714466903963        5.26393896735196
C            4.08847880702903       -0.69916459790733        4.04203090755541
C            4.38932207647546        0.08186524796774        5.18414053734180
C            4.35591110919424        1.44212763050678        5.13941887093077
C            4.01883698040832        2.10032854496228        3.95162942807068
C            3.72540656195647        1.38537575323675        2.83079246351163
C            3.75246367208256       -0.03026072137592        2.83350387101576
H            1.15824505204267        1.35914088975727       -0.79067381777896
H            1.45959519543680        1.68857484663270        0.91804336727078
H            0.60917272727805        0.21729429107190        0.44145455408836
H            2.59129619272914       -0.86496902393249       -2.24109815992194
H            1.99637611678469       -2.00276780036044       -1.02987410836466
H            3.72715783025746       -1.91667820347095       -1.39269463860871
H            4.35017628094442        1.24507282491923       -1.61565858657534
H            5.36136655629307        0.69521948202999       -0.27513373190357
H            4.31274496253203        2.10463260246271       -0.07717975736649
H            3.26099072656479       -2.73525365912568        0.86163211687944
H            3.83520961654478       -3.89305702468989        2.95494294053176
H            6.40359747145525       -1.70355081905546        6.45561001237452
H            6.96756136852993       -2.93023901389598        5.31907389985283
H            6.55205720881632       -3.38305914227981        6.97532866222297
H            3.45212513796234       -1.70955344275239        7.36928603674450
H            3.44982678208900       -3.42249654042995        7.78801763509184
H            2.29976826033521       -2.80296908918889        6.59885548296912
H            5.11906234969122       -5.22362075919411        4.48608220472422
H            3.41078218440913       -5.20382778115605        4.95043211760517
H            4.65605016170763       -5.48927196835157        6.16877757569528
H            4.65066572905867       -0.41443539333884        6.10029862387052
H            4.58887946395524        2.01746684554045        6.02098048697744
H            3.99298431320386        3.17787883279411        3.92740265435740
H            3.46486701737616        1.89945036252424        1.92413303414719
