50
 energy: -9.096022578638 gnorm: 0.000591936395 xtb: 6.5.0 (97a52f5)
C            1.12835945900719       -0.04566974375134       -0.01194640059909
Si           3.00142934487952        0.01702481902161        0.02592894651097
C            3.61253243618745       -1.74393081740142       -0.16405606666447
C            3.66492198539251        0.99205319378740       -1.43088047470869
C            3.60073811038490        0.75849698567049        1.63246337271070
C            4.39538547744083       -0.03312104241154        2.43672992612527
C            4.88283419530527        0.42807998188644        3.64256151740982
C            4.58212994159697        1.71535023327824        4.08454388817892
C            5.06965581093761        2.22575860508972        5.32899442813910
C            4.76685343446945        3.47595526821248        5.73927684172305
C            3.94557836140170        4.34848372676120        4.95317197845588
C            3.61489451197998        5.64948319944493        5.35536239442228
Si           4.21410154441659        6.39296808248359        6.96052691163128
C            6.08410946518959        6.51896291885716        6.95694082444472
C            3.54014426447914        8.12744427020760        7.18316615236342
C            3.62114729258249        5.37510595991866        8.41995065220419
C            2.81959159535975        6.44076265213501        4.55144780614605
C            2.33417431008941        5.98054694263839        3.34447225617077
C            2.63689751336883        4.69398110148738        2.90195182385999
C            2.15313362237546        4.18537421818623        1.65545674171275
C            2.45665675610938        2.93561192471918        1.24463646725523
C            3.27320615334599        2.06080837849595        2.03325241080089
C            3.76856389329331        2.54332202310825        3.27426069168937
C            3.45001104833801        3.86572581640855        3.71241033175517
H            0.79822533304014       -0.54376164156031       -0.91925796454796
H            0.69130784521356        0.94756180245360        0.01551912575883
H            0.76631852793216       -0.60703659140945        0.84487125229527
H            3.24827431581499       -2.15989318665246       -1.09952828278722
H            3.24926200508542       -2.36009372468767        0.65394086203453
H            4.69880725679230       -1.76920906654315       -0.17301332115164
H            3.33477808013738        0.53580323963363       -2.36016101565105
H            4.75131563253016        0.98556707137568       -1.40706614216608
H            3.32513928534656        2.02303503831622       -1.41040497108367
H            4.63935949920173       -1.03091747658888        2.11440647214480
H            5.50203025554872       -0.20514825909347        4.25477258274235
H            5.68931195091766        1.58989796809051        5.93783123169812
H            5.14788038960266        3.83442192383895        6.67737896310497
H            6.40567353460924        7.12298182053091        6.11294638196740
H            6.54881864629932        5.54066687672956        6.87888553859100
H            6.42257406257359        6.99188137680691        7.87484381128779
H            3.86930375093660        8.76956843784980        6.37099750950324
H            3.89991691519819        8.54296753121535        8.12010680691765
H            2.45412743066882        8.11097453043394        7.20450946338817
H            4.21929782994054        4.47807726064575        8.54899430042280
H            2.58504408997611        5.08582836171687        8.26704625407551
H            3.68686412778558        5.96548466838342        9.32986047453457
H            2.57370668970280        7.43785790887368        4.87449107190236
H            1.71518363596827        6.61380025788833        2.73209255688299
H            1.53715038471968        4.82307159195767        1.04481879061411
H            2.08167799648729        2.58078358164821        0.30274482572950
