38
 energy: -7.421686083423 gnorm: 0.000909128650 xtb: 6.5.0 (97a52f5)
C            1.02334353387074       -0.14237206225249       -0.23095013896419
Si           2.87804694029786       -0.08736926417857        0.03043901203624
C            3.40087998494768       -1.78152207609090        0.63621431746013
C            3.76457524760285        0.21565433740266       -1.59324709996540
C            3.32450818146361        1.22908811573294        1.27871073066008
C            3.94419612133069        0.81309733512010        2.44006541908776
C            4.31042614624629        1.71038316142955        3.42267486552777
C            4.06228471986756        3.07315603197214        3.26838165508602
C            4.42695550320229        4.03289671998190        4.26677007876124
C            4.17955932852394        5.34978499495225        4.09646211140861
C            3.54330075278144        5.83666924246271        2.91000882685200
C            3.28132753958967        7.19291807135712        2.70830649307739
C            2.66632532266019        7.62929621904546        1.55270512305505
C            2.29648558860383        6.73359305926842        0.57052857613323
C            2.53646676810764        5.36706670059373        0.72354704420716
C            2.17076189938507        4.40938370937113       -0.27420990897032
C            2.41749317239182        3.09215692112864       -0.10470433556747
C            3.05469498969631        2.58930768328513        1.07684918552119
C            3.42802304852734        3.51869223805909        2.08339355632990
C            3.16768174998513        4.91092522319975        1.90566168493468
H            0.77321177530927       -0.94449157250697       -0.91974699878456
H            0.65107456274282        0.79280256626137       -0.63758346356321
H            0.52823973438883       -0.33078684565424        0.71743002607159
H            3.13560507983828       -2.53311467472781       -0.10218378114071
H            2.89942927692727       -2.02166736614051        1.56951830981525
H            4.47555784603682       -1.81325142626658        0.79202325731571
H            3.66748974292311       -0.65710706277704       -2.23188866846319
H            4.81950728084518        0.39371273250954       -1.40638884730656
H            3.35376600773199        1.07242846928078       -2.11778018923431
H            4.14522706271806       -0.23513567546461        2.57977748878421
H            4.79293932609907        1.36442018482349        4.32059714022942
H            4.90603293388392        3.68284438205640        5.16483309568378
H            4.46004518999487        6.05816309834564        4.85684889599933
H            3.56638767822330        7.89924100984092        3.46905938287022
H            2.47310729139298        8.68083010773976        1.41537156802937
H            1.81773598407194        7.08329794050591       -0.32808533499861
H            1.69158895061545        4.76105688687458       -1.17167484421004
H            2.13300773719356        2.39612088345724       -0.87147423377183
