30
 energy: -5.427401719497 gnorm: 0.000444530251 xtb: 6.5.0 (97a52f5)
C            1.04202710632301       -0.10854446323628        0.21625505530889
Si           2.90910619237412       -0.06496808512495        0.06672443794870
C            3.68397949148119        0.56903931780472        1.65166713352934
C            3.49236183014530       -1.83100953947867       -0.16181490216883
C            3.42057744546539        0.99493219434663       -1.38356099309281
C            4.08488552543918        0.38461684166970       -2.40510187716973
C            4.53019935453849        1.11044788419899       -3.51889875106646
C            4.30620969599617        2.45019947416682       -3.59892788611241
C            3.61928297452782        3.12613419228676       -2.56475642068150
C            3.37610568460257        4.51864213397089       -2.62408206228547
C            2.70887241838132        5.15222572680210       -1.62035814537611
C            2.24903373803591        4.42979521135778       -0.51243292287856
C            2.46765973140049        3.08816415595563       -0.42413884269326
C            3.16281488096567        2.39053864198288       -1.44108765005689
H            0.75609408938390       -0.75008714333919        1.04516041046019
H            0.61376390876828       -0.50883976367189       -0.69856106375679
H            0.63189979627617        0.88220523697886        0.38675921295339
H            3.48160625847377       -0.12737561407159        2.46086523859153
H            3.29218396939617        1.54274899961620        1.92956219101080
H            4.75983753153720        0.65107741835681        1.52371494498838
H            3.20933995737262       -2.42704432119526        0.70134849422465
H            4.57358468632626       -1.86014291462243       -0.26403753498403
H            3.03966745831178       -2.26734421967787       -1.04778089797405
H            4.27291102221268       -0.67438587844203       -2.35661569348473
H            5.05395663859636        0.60199278105030       -4.31202857298965
H            4.64941919103681        3.01058420803448       -4.45171617278325
H            3.72832298045877        5.07252865940023       -3.47743828408779
H            2.53049594786058        6.21391091672731       -1.67626868313126
H            1.71829118635979        4.94164158811651        0.27403156653520
H            2.10400930795011        2.54355636003137        0.42735867123206
