31
 energy: -5.712557919855 gnorm: 0.000564752967 xtb: 6.5.0 (97a52f5)
C            1.24816848142941       -0.27842794350922        0.24872824622005
C            2.69582921069028       -0.09332077751892       -0.07503873804177
O            3.29997797527957       -0.98739167939830       -0.62132704482606
C            3.35029448823341        1.17256926500768        0.30516751900844
C            2.88822605828130        1.92668206389254        1.37715506531274
C            3.50689511325466        3.10082180807330        1.76169210221773
C            4.62843341494907        3.56047010590654        1.04217613532227
C            5.09597189425550        2.79658534152971       -0.02977844328879
C            4.47708979249354        1.62987516599549       -0.40607804101130
F            4.92306315664054        0.96948239994914       -1.49558996522899
N            5.22679297960076        4.75618315474738        1.37986260960255
C            4.63798716279867        5.74120181674593        2.33158747238403
C            3.66884789507897        6.64492034454664        1.56245910892353
C            5.76216418681349        6.57806954376420        2.95374668911810
C            3.87234445465599        4.97165604693925        3.44622087809300
C            3.01650065163848        3.85344541413792        2.91835623124591
O            1.96037330444468        3.58423325732255        3.44664882870543
H            0.81097572475600       -1.01914268515456       -0.41927862430645
H            0.69277890704569        0.65143053961316        0.12988027281671
H            1.12118315606235       -0.63399098358209        1.27050378862970
H            2.04285253278887        1.58805269610229        1.94862679074712
H            5.94869913742946        3.13197938563275       -0.58912533287346
H            5.97222845085127        5.14276355654687        0.80728021815349
H            4.18509464345300        7.16787109027825        0.75908634392578
H            3.21777387661456        7.38789425463867        2.21872770211913
H            2.87029286987850        6.05334907814142        1.11752993574176
H            6.29374626715086        7.14309054237052        2.18980896969964
H            6.48312774231494        5.93642944160980        3.45781161749727
H            5.36652423851499        7.28428139969632        3.68241162777266
H            3.24060421820729        5.66599036012312        4.00665126097464
H            4.58723801439301        4.55753599585114        4.16162677534446
