64
 energy: -12.515560405114 gnorm: 0.000712588110 xtb: 6.5.0 (97a52f5)
C            1.32848221953593       -0.29291545738471       -0.25479574823186
Si           3.14364415499224        0.13141547092662       -0.06763527947091
C            3.97782445302268       -1.48021661896966       -0.54196164889712
C            3.41766481248337        1.60551091531355       -1.20937518100475
C            4.18276098783797        1.61093239194062       -2.38819188593795
C            4.96934728377655        0.50568606752536       -2.82304172910886
C            5.70294154427067        0.55010074392729       -3.96401081189557
C            5.71423442629068        1.70612744328712       -4.76392563641026
C            5.00020363727203        2.79631956846125       -4.39197620446027
C            4.22594962531393        2.79167326871773       -3.19764320631720
C            3.52906576187599        3.92692442077214       -2.80192908608520
C            2.79529385865247        3.94505737758200       -1.62304172572261
C            2.10135575675825        5.11523803005521       -1.20467135316543
C            1.39877621132178        5.13147242803696       -0.04486066683219
C            1.34736249491308        3.98466270042987        0.76820272570271
C            1.99325176986056        2.84967936780943        0.40016694081360
C            2.74122712984197        2.76963185588083       -0.81093848994846
Si           3.84310591856409        0.35988765735269        2.17799438305307
C            3.42739645676036        1.86856955881131        3.20503053361434
C            2.91234573873666       -1.07218956373420        2.95240707884367
C            5.69616885953046        0.13015865409735        2.34328909447772
C            6.48967386883059        0.70009041239589        1.33675853247048
C            6.01352653219431        1.73168457530370        0.47874882757930
C            6.79337174090993        2.25600127777219       -0.49993726915381
C            8.10700336200525        1.79122130607298       -0.69380367490148
C            8.61811701161314        0.82612873701282        0.11111604793920
C            7.83904322573344        0.26191738186446        1.16043609805880
C            8.36364530327171       -0.69540648484764        2.02258140251594
C            7.61652059659765       -1.19545464858640        3.08489330788262
C            8.17345457919889       -2.12744922183831        4.00525061077925
C            7.46270840415521       -2.55514160289722        5.07842513869717
C            6.16217010397673       -2.06876199803505        5.30898552713484
C            5.58906335300057       -1.19261089320163        4.44512813051393
C            6.27019964983786       -0.74852753229944        3.27494962772062
H            1.05124568565310       -0.23063670073461       -1.30394134228724
H            0.69278089314631        0.38202927287952        0.31133686048029
H            1.14643909407070       -1.30747824088785        0.08990914124555
H            3.69943170824035       -1.79245299670422       -1.54479910366313
H            3.65190764281797       -2.25221361110845        0.14972916298217
H            5.05834753791433       -1.39872258609049       -0.46030499488527
H            5.01458041008816       -0.37289562613870       -2.21551387393920
H            6.29117559987534       -0.30360710510695       -4.25952902994851
H            6.30059736584125        1.72354107506488       -5.66821308856124
H            5.01563341472739        3.68721889191454       -4.99630472975002
H            3.57054758357801        4.81179016514298       -3.41136216443624
H            2.14567298408461        5.99394501097349       -1.82509263581958
H            0.88011598678235        6.02516265114591        0.26196723775621
H            0.79331146632756        4.01396075344213        1.69236822218166
H            1.96072129106173        1.98928157404699        1.04158135153381
H            2.35357672633714        1.94336895202711        3.35213001393848
H            3.78040533275738        2.77055995388653        2.71317627441027
H            3.90601839042491        1.79498725615212        4.17747285109651
H            1.99038439952589       -1.23881578685299        2.40280610345897
H            2.64916898551306       -0.86372169161702        3.98557276254121
H            3.50478319461127       -1.98192527483678        2.90823328886827
H            5.01130988666918        2.09401845215842        0.61817969997170
H            6.40009789377890        3.02287185138209       -1.14690969387781
H            8.70753683077340        2.21093667481727       -1.48431537023174
H            9.62729763532139        0.47892277464808       -0.02983232873449
H            9.37752683246910       -1.02682639611635        1.88821450985857
H            9.17681772304330       -2.48164811305753        3.84144666619543
H            7.89834257482296       -3.25681547568133        5.77104173655724
H            5.62490813153673       -2.38897363603254        6.18694721480227
H            4.62357595973873       -0.77962965232134        4.66983084470994
