77
 energy: -16.313176494557 gnorm: 0.000906514249 xtb: 6.5.0 (97a52f5)
C            0.89526051500712       -0.19708529484346       -0.09985059493768
Si           2.75271799284788        0.04232883138359       -0.09570044517438
C            3.57710432041336       -1.57982554556251        0.35553770298469
C            3.30569160302377        0.61010404753151       -1.77879167606228
C            4.39743076288248        0.03361905263569       -2.39541018776002
C            4.83139111252007        0.50074987150030       -3.61663950294255
C            4.17958824065193        1.56005370684026       -4.24504263347220
C            4.64696371348333        2.08163126445919       -5.53166115380160
N            4.51789351250346        3.34383838229764       -5.89903577254911
C            5.09448111407457        3.44711455851789       -7.13207873164899
C            5.23581247356006        4.55757438401823       -7.97849798794383
C            5.84608056740315        4.38996898163639       -9.19461710274785
C            6.32274938979922        3.13573712820044       -9.60218086282449
C            6.19848922979975        2.03642748749378       -8.79285710575114
C            5.58807877653729        2.19268117573695       -7.54599154621170
N            5.29525009817674        1.30511879027983       -6.51628662040096
C            5.47192732836403       -0.12460971032456       -6.56384034547650
C            6.73075862553036       -0.67600748971143       -6.76821516226399
C            6.89583793068360       -2.04290151868676       -6.81236388837231
C            5.80632664168924       -2.87720044097976       -6.65477566103591
C            4.54971834228054       -2.34044770989089       -6.45348101571263
C            4.38266629688592       -0.97406161139571       -6.40993414928377
C            3.08459530157687        2.13800040774281       -3.60715798289524
C            2.65068489346395        1.66083685761454       -2.38897627244616
C            3.19611998088126        1.32965738862859        1.16886444066939
C            3.05053204579014        1.04950071889461        2.51201197494033
C            3.34661781479771        2.00847059995069        3.45626703110173
C            3.79489730855427        3.27088059419457        3.07142735706506
C            4.08746293410445        4.30823741778615        4.06319103760894
N            3.95423405755188        5.60119969763020        3.82753066481021
C            4.28270604013557        6.24081678273635        4.98791427800415
C            4.31758212413671        7.61051608218883        5.29161847362300
C            4.70653109880567        8.00047725665347        6.54709091012629
C            5.07010587530356        7.05928345143264        7.52080598028699
C            5.04497062310061        5.71613633894341        7.24848505239782
C            4.64245131828278        5.30203128821943        5.97651127006739
N            4.52343129478889        4.05113191218897        5.38091778201371
C            4.93562436856884        2.80158713086909        5.96947757614594
C            4.36718415322591        2.35707987128141        7.15678495275765
C            4.76756869799764        1.16514774836121        7.71934696786402
C            5.74172761985025        0.40232164583256        7.10528171994247
C            6.31574143445394        0.83537132543575        5.92603573089979
C            5.91687080317750        2.02697095836782        5.36228132634182
C            3.92914643409481        3.54149774835511        1.71169575636935
C            3.63743731973362        2.57576205902579        0.77310093163385
H            0.61148120919321       -0.87983368599504       -0.89566848336262
H            0.39342112473661        0.75325468577174       -0.25669961915048
H            0.57049121310660       -0.61114098793264        0.85038418944450
H            3.41130671434318       -2.31368461596296       -0.42808832306225
H            3.16513620746284       -1.96322954395470        1.28453164145886
H            4.64593917428212       -1.43330880831666        0.48257549837394
H            4.91134073398070       -0.77976923730053       -1.91258493082412
H            5.68665640338288        0.05589334542072       -4.09321933501268
H            4.86332894331778        5.51560608940547       -7.66303522042197
H            5.95921101548535        5.23602746781990       -9.85239984071744
H            6.79250171971935        3.03643203382256      -10.56686782166896
H            6.55599602095348        1.06883276433013       -9.09629894444535
H            7.57435048178849       -0.01804967924930       -6.88368432123940
H            7.87625103844907       -2.46193723767714       -6.96992006204248
H            5.93654982939069       -3.94650766300481       -6.68987320585226
H            3.69901482662171       -2.99065164051855       -6.33086634130961
H            3.40821417980019       -0.54522043064926       -6.25346967472172
H            2.58079868028184        2.96151841020521       -4.08218862206246
H            1.80378202116832        2.11049946797885       -1.89855942489405
H            2.69876120536731        0.07743242907810        2.81375928452252
H            3.22456665413103        1.79306966723070        4.50265070289067
H            4.04233977820320        8.32774172053574        4.53939722484459
H            4.73648245188739        9.04964711737336        6.79128583262159
H            5.37448756001391        7.39899667540652        8.49709879606329
H            5.32606468592692        4.98522956506869        7.98527540232222
H            3.60599124869066        2.95608113008030        7.62544371031432
H            4.32052781357814        0.82745191986268        8.64004439732798
H            6.05496957071114       -0.52959498862869        7.54686057160941
H            7.07661432403661        0.24131473173062        5.44679700997864
H            6.35799310052726        2.37437856863732        4.44431677204555
H            4.26585395591833        4.51640856986728        1.40550704546428
H            3.74772398302285        2.78644853603430       -0.27629642440840
