64
 energy: -12.532079720561 gnorm: 0.000714542313 xtb: 6.5.0 (97a52f5)
C            0.59133419331221        0.28676631593168       -0.22116955216778
Si           2.41596318352275       -0.04026048542535        0.00850367841703
C            2.57733963119649       -1.75182614269734        0.74392186841015
C            3.16661893534951       -0.04888273516701       -1.68768271320375
C            3.62801649426363       -1.22826423931936       -2.30470820061461
C            4.32042085499254       -1.17547312845914       -3.47246294174676
C            4.59594750685186        0.07227674361315       -4.09951267798287
C            5.32209365546234        0.16249625283674       -5.28565944190707
C            5.59030915639063        1.39549098638969       -5.87836658140649
C            6.33309449222173        1.50588167266993       -7.08693135565793
C            6.58041223308940        2.72011735242905       -7.64107956841408
C            6.10616950113881        3.89831759900774       -7.03033413061289
C            5.39387174396567        3.83984517996491       -5.87644356906581
C            5.11073452233167        2.58960109866948       -5.25946990041831
C            4.38372561252144        2.49958891571853       -4.07431420460865
C            4.11688459483054        1.26679419265205       -3.48301647785831
C            3.39193454397830        1.15832392026500       -2.26361652016177
Si           3.51322600137487        1.57267339789209        1.29214570958592
C            2.73071341867400        3.25955155666224        1.09838441893883
C            3.47115285691111        1.16636947777969        3.11515466453493
C            5.30529994552039        1.74449610655358        0.83678836137320
C            5.90674026440784        0.77113171324026        0.01613004353034
C            7.21368194204720        0.86560233470273       -0.33824423076306
C            8.00971068162731        1.95301558606609        0.11666742934225
C            9.35449261553931        2.07891376529810       -0.22639471340071
C           10.12044169708953        3.15068485907072        0.22871268960681
C           11.49541371515450        3.29186582595622       -0.10896368160932
C           12.21792243657141        4.34548513131531        0.34949858900613
C           11.62012145263424        5.32309351125600        1.16928935363693
C           10.31135092861607        5.22745092197018        1.51663521174942
C            9.51515182854874        4.13988920886180        1.06107934997256
C            8.16999164301833        4.01391995857182        1.40400489998783
C            7.40476630238888        2.94106713148095        0.95067638013051
C            6.03002006376305        2.79575699749341        1.29331835047873
H            0.15205210210914       -0.47792356573786       -0.85563857949547
H            0.44330675476417        1.25685851865338       -0.68735473772687
H            0.08643020025032        0.27898598699861        0.74081083312483
H            2.03222002626941       -2.47532757418397        0.14415536172760
H            2.17155565681845       -1.75837675119901        1.75189453221275
H            3.62294485155156       -2.04436073327094        0.78711057792662
H            3.43184889379118       -2.17584560467871       -1.83318380992893
H            4.67682954000560       -2.07944809364641       -3.93540598681602
H            5.68583941283888       -0.73603592752743       -5.75028179114617
H            6.69769109423175        0.60822870400763       -7.55610063989452
H            7.14451954267262        2.78871616699907       -8.55700214414226
H            6.31362379137507        4.85234916328331       -7.48687294984790
H            5.03312224388192        4.74157319985452       -5.41193661257703
H            4.02604862665052        3.39777064418988       -3.60420550415132
H            3.04668283282946        2.05273378881336       -1.77568164859320
H            1.65149063126895        3.17958205348679        1.19312751941363
H            2.96713603091924        3.67359554323229        0.12240850416865
H            3.09847700865173        3.93780045802866        1.86286623385661
H            2.44249762479284        1.07592748754174        3.45319553930727
H            3.96143700966074        1.94963574300888        3.68659823439435
H            3.98491966304806        0.22627406062324        3.29616247718433
H            5.30465340671905       -0.04404907362394       -0.34454946337252
H            7.66176959550359        0.12027236301326       -0.97238508003480
H            9.80990376178004        1.33412069888317       -0.85356831396145
H           11.95515906533865        2.54732629788354       -0.73569245189072
H           13.25874295131723        4.44018015355579        0.08579623318941
H           12.21156468476748        6.15239666789470        1.52158201878212
H            9.85784296429343        5.97621949690596        2.14285044957816
H            7.71374107116497        4.75847555178713        2.03067077216469
H            5.56454031185621        3.53176359208168        1.92417988994207
