64
 energy: -10.595736494322 gnorm: 0.000926729615 xtb: 6.5.0 (97a52f5)
C            0.54288775090970       -0.12730348730045       -0.06556713373987
Si           2.38053200002801       -0.22672810500430       -0.39854061025487
C            2.62952877367799        0.12262854668066       -2.21698067919076
C            3.21588394288450        1.15433508324689        0.53404555036770
C            4.35648470887664        0.68535587105833        1.24787131031596
C            5.24135217928861        1.25669414618037        2.12582717151861
C            5.29084920491412        2.54468511700666        2.62543045700963
C            4.47373949885968        3.53971116995040        2.33289287156532
C            4.39200815868490        4.80600942269550        2.71473757501106
C            3.40839026025958        5.57424091645690        2.17849389666483
C            2.92790821668446        6.81061963307233        2.22492878514727
C            1.81312574790593        7.19857868172043        1.43556553091808
C            1.14621202004280        6.37116965746141        0.57617284999710
C            1.50279555980934        5.05004949641350        0.39366695679373
C            1.05739188668601        4.01535352813391       -0.35244553833354
C            1.63420243912739        2.78725208570722       -0.29991848050621
C            2.69945701688049        2.37773389257902        0.44634448421115
Si           3.08502871196212       -2.37909088662479        0.17688634526533
C            2.55130174024923       -2.83034824686782        1.91124202661907
C            2.35519934732410       -3.68296170470018       -0.94454818219772
C            4.92946189668938       -2.55085967810495        0.05535858055126
C            5.73108817645123       -2.66062405497928        1.22213288035536
C            7.09823156228138       -2.65666221597870        1.23483337398401
C            7.84748002253143       -2.54335280042156        0.08133547189083
C            9.16103533826841       -2.49634290487412       -0.23273499647556
C            9.59053582979537       -2.37617997134902       -1.51538336968590
C            8.84102767523321       -2.28303094058889       -2.64906752709918
C            9.31029136533588       -2.17368910711400       -3.88791686741203
C            8.61498108503528       -2.07052977783106       -5.13024633217111
C            7.28662419268260       -2.04637202543692       -5.46674647066062
C            6.16056089064965       -2.12034256383921       -4.66669209862344
C            6.12469192749304       -2.24774829705161       -3.35293497540243
C            5.14994733507350       -2.31553101578878       -2.45823843015700
C            5.48471090947212       -2.44991141323009       -1.14674643891337
H            0.10532099740825        0.73511899083599       -0.55967284269449
H            0.36538365116102       -0.04691908737800        1.00323362730695
H            0.05282868007316       -1.02382846595392       -0.43483361297120
H            2.13705858276899        1.05021832261549       -2.49422798146112
H            2.21747029943111       -0.68636526956884       -2.81347389169819
H            3.69075030357088        0.21120780682005       -2.43176632643922
H            4.55701882308398       -0.35470267424031        1.03771599975575
H            6.02347316904046        0.61295937252574        2.49985825651097
H            6.88880240465066        4.50775237524003       10.38803876035845
H            5.80548765877800        8.52754045103847        9.40000146191381
H            3.39705500093338        7.52915955056590        2.87532077364711
H            1.47351382942003        8.21825039414137        1.52569660341865
H            0.30815551467505        6.74979849390783        0.01564472005199
H            0.21426246216881        4.16535341551900       -1.00408760998621
H           -0.36995906788326        0.72708320412776       -5.92737906811741
H            1.46659822288128       -2.85644738480325        1.96687014120019
H            2.91649626873596       -2.09421920427640        2.62197124206556
H            2.93787369743411       -3.80843878085858        2.18361405598352
H            1.27333558452740       -3.69588058217067       -0.84619919069673
H            2.74446081488902       -4.66201898638230       -0.67977423405834
H            2.61057758324880       -3.47229871233293       -1.97913097797887
H            5.21326614063053       -2.74337098009316        2.16292708762786
H            7.62222268530433       -2.73924195698857        2.17197804117777
H            9.89042776703340       -2.55553111282343        0.55623593566098
H           16.93463434472931       -2.17561848478874       -1.84257154140659
H           10.38784884313431       -2.16187306799026       -3.96292620093266
H            9.28193863646124       -1.99469066152645       -5.97891351786559
H            7.06442599603480       -1.95418586123156       -6.51974619220173
H           -0.71900887041994       -3.14105110303312       -7.17587536648513
H           -0.24742739849648       -2.09490806996636       -3.04478613804485
