94
 energy: -16.012449556433 gnorm: 0.000782658157 xtb: 6.5.0 (97a52f5)
C            0.86248306512563        0.92609058656393       -0.03177295404484
Si           2.56716805661106        0.15644046406429       -0.06658324975044
C            2.28329232654951       -1.59751777534544       -0.65066632819625
C            3.55623367839648        1.05693321430717       -1.36412919694638
C            3.98324122291094        0.37215686084141       -2.46239058951027
C            4.73703634398623        1.00250402484324       -3.46262673791098
C            5.05197166474478        2.32222202768334       -3.35722083341709
C            4.62758202197130        3.07410440352089       -2.23805940360346
C            4.92886777066117        4.45022685511933       -2.10856413343788
C            4.50846753699878        5.15538205193872       -1.02200746457634
C            3.78229544683334        4.52183800575609       -0.00586947050107
C            3.48301164590334        3.19627119225287       -0.09651497972842
C            3.87815802107623        2.43231147062718       -1.21985327871852
Si           3.65460580308645        0.07500339885044        1.99506464437958
C            2.77012972098293        1.13447322843602        3.24994756362111
C            3.45170464266835       -1.66224723198164        2.64099198231345
Si           5.93973517398237        0.52652996775655        1.95268892184813
C            6.83298912610532       -0.93396296883144        2.69078746630123
C            6.48381664296000        0.53641896511782        0.16949658723805
Si           6.78287426200001        2.42999062851806        2.98744114497378
C            5.38767214617066        3.63748706222614        3.24697324677911
C            7.32430804089256        1.98356724186717        4.71693571869448
Si           8.42939357159887        3.58667198031375        1.81583013210342
C            9.44225263306685        2.47323424319887        0.70842365559399
C            7.51008380403035        4.69792605428880        0.63559689565093
Si           9.83987283564270        4.94885089539963        3.10450420714761
C           10.62116248305112        6.08782174943102        1.83613413279246
C            8.66303245973045        5.96039527205192        4.15199058122206
C           11.21578914412256        4.37325977074351        4.24374138342713
C           11.42083854535992        3.00287073114550        4.45271532640142
C           10.57347550782224        2.00591302251088        3.89524094430731
C           10.79820360546324        0.68335982466805        4.09630926054714
C           11.88694559960140        0.25553392903867        4.87873142016756
C           12.71945078607721        1.16384544538415        5.44656933539439
C           12.51517566968413        2.56042823522289        5.25947915059249
C           13.35468751590077        3.49999159211897        5.84735982610278
C           13.14923795085231        4.86368132791137        5.66594996528983
C           14.00456086112499        5.82312342957032        6.27770699087591
C           13.80232965250675        7.15198701978537        6.09747664273199
C           12.73686290981503        7.60526095760546        5.29805172658806
C           11.89884115118190        6.72226800908101        4.69774777170765
C           12.06263228560332        5.31351300162843        4.85019650831789
H            0.42482271661146        0.89365002001809       -1.02572016026836
H            0.90104733573866        1.96059534949792        0.29565290573095
H            0.22388933608406        0.37011499801460        0.64930912472426
H            1.78102490794332       -1.60082526397059       -1.61430254297432
H            1.65972001943252       -2.12550595890791        0.06577507143989
H            3.22999900453749       -2.12330562317176       -0.74058875767868
H            3.74308961441242       -0.67224899172189       -2.56302601569787
H            5.06514385394644        0.43562041116766       -4.31888319668656
H            5.62763325929672        2.80914545999479       -4.12577426640278
H            5.49649314854676        4.93409457508224       -2.88492840697783
H            4.74276568575134        6.20408321271925       -0.93541221556186
H            3.46224344836559        5.09035080582477        0.85227229812195
H            2.95266965711144        2.70656031938105        0.69914775602434
H            1.74210400647186        0.79964973535845        3.35966959618661
H            2.76428280924409        2.17523609516366        2.93978656956106
H            3.26712337779089        1.05927274126107        4.21344420540785
H            2.39727795395876       -1.91721138001952        2.70462311904106
H            3.89317981722844       -1.74820136863696        3.63019856766106
H            3.94287228879775       -2.36706377175789        1.97549731253867
H            6.57410732057748       -1.84310985236809        2.15478599937996
H            6.55774693584218       -1.05143098778293        3.73545696907632
H            7.90729201930716       -0.78451004226878        2.62596916383351
H            5.92642364763412       -0.20873362638534       -0.39142192301366
H            7.54272269231337        0.30706896976447        0.09288475198045
H            6.30336601574754        1.51362802678087       -0.26958213090308
H            4.73254043147738        3.29714936607275        4.04392478742086
H            4.81085507541145        3.72657794392587        2.33196446359696
H            5.77843826055034        4.61610615159571        3.51144494248455
H            6.45905237058028        1.73228678986656        5.32450937356583
H            7.84443309362372        2.81866365133859        5.17828136926159
H            7.99013504685491        1.12573209954505        4.69266867215001
H            8.98580850981972        2.40350721007533       -0.27526722676483
H            9.51173618754431        1.47459036457884        1.13121433494400
H           10.44590814609664        2.87523804702252        0.59734488786088
H            6.79820020017329        4.11058311769678        0.06249280036728
H            8.19846248562364        5.17902857046804       -0.05365941137780
H            6.96927398618098        5.46469023621508        1.18361112401821
H           10.47478125357509        5.68058830405992        0.83931664984136
H           11.68999852001579        6.18102627904402        2.00934967336689
H           10.16962688463855        7.07578136537333        1.87368055424505
H            8.11565126918485        6.66112792664464        3.52744509368273
H            9.18384807367967        6.51582876048083        4.92568221697107
H            7.95059437105326        5.29625995479536        4.63301891602039
H            9.72827375745824        2.32419463621689        3.31598075919274
H           10.14018450612182       -0.04887501332280        3.65760964490754
H           12.05366021482421       -0.79908264231405        5.02740377317115
H           13.54967195118139        0.83818674657322        6.04984095015574
H           14.17500762712757        3.16635529901156        6.45728158572385
H           14.81905342181964        5.47545557837973        6.89001767271195
H           14.45780634711589        7.86763522455844        6.56695265445844
H           12.58816360235061        8.66467219945046        5.16466141625759
H           11.09209019602440        7.09172780322297        4.09254001587245
