76
 energy: -13.576489685636 gnorm: 0.000549479108 xtb: 6.5.0 (97a52f5)
C            1.07066184121103       -0.34268317103216       -1.47946841526084
Si           2.61237142293320       -0.10966666934025       -0.44721103071425
C            2.16651592910302       -0.78216943350343        1.23987672690582
C            3.92786996292616       -1.20171023921186       -1.18835944559103
C            4.39790028836270       -2.26202355788383       -0.47294587364216
C            5.33753999783625       -3.14687911581723       -1.02091904199184
C            5.79331850035171       -2.96652770342595       -2.29054061536329
C            5.33851517271256       -1.87722928873423       -3.06785327161717
C            5.79880354447874       -1.65975402034613       -4.38776710219965
C            5.36120298289838       -0.59130352050494       -5.10972489746556
C            4.45065695035580        0.31446053306191       -4.55158166527408
C            3.99289249094230        0.13653416635494       -3.28177942338653
C            4.40661181018457       -0.97006161614661       -2.50423028646132
Si           3.26408028422525        2.11778906467594       -0.21578478796987
C            2.37229327422804        3.22692628127202       -1.42188115428996
C            2.65436261486200        2.67518002504491        1.45558262936633
Si           5.56470398678159        2.46220657012252       -0.27068439350044
C            5.96990126606519        3.53647153045045        1.19971635066912
C            6.35705638152542        0.83620377590910        0.18989508162031
Si           6.45270605835992        3.63965284975124       -2.10398497641624
C            5.70045795070253        3.39495639852226       -3.79768586722033
C            5.97042311988386        5.38386456840712       -1.60960058798728
C            8.30347368080085        3.40866980654743       -2.30554053001463
C            8.75794099105670        2.08247923499748       -2.23577009608802
C            7.89932854980902        0.96234093095656       -2.43489958436777
C            8.36397969251147       -0.30911360028314       -2.34482459986034
C            9.71665410160532       -0.56143077475348       -2.05538013246616
C           10.58078644158007        0.46842712369526       -1.87511407681282
C           10.13874110499745        1.81808450390991       -1.97163462569112
C           11.02217913076109        2.88195190262985       -1.82204969839296
C           10.59965086947265        4.19783209942204       -1.98240252197560
C           11.51640300908069        5.28278752320880       -1.88818399445367
C           11.11246482822496        6.55704332078840       -2.11799066090524
C            9.77740733422928        6.82471386649463       -2.47429565116849
C            8.86912893026559        5.81914053838243       -2.55705075171498
C            9.22405493852729        4.46869928844902       -2.27177408388565
H            0.82381636427061       -1.39897079070894       -1.54161782963499
H            1.21385385321453        0.04079426693815       -2.48539187915859
H            0.23820893025393        0.18484988844152       -1.02177546015856
H            1.84613507311971       -1.81759809856139        1.16417993978205
H            1.35328050678549       -0.19875094870782        1.66283005886377
H            3.02106144839860       -0.72189037284478        1.90822364975226
H            4.04241420014733       -2.42469312555001        0.52992353930989
H            5.69456847376786       -3.97618102240223       -0.43215085679133
H            6.50993182236497       -3.64890295952427       -2.71475988201715
H            6.50457368181192       -2.35248639446524       -4.81337438929193
H            5.71931162721974       -0.43556919494258       -6.11449256346810
H            4.11177370397109        1.15614578147476       -5.13341871080069
H            3.31885972474404        0.84976599282684       -2.84480232222989
H            1.29876550328494        3.08828012904065       -1.32577765030944
H            2.66131452677343        3.00048857623852       -2.44356128081868
H            2.61000041637221        4.26686261660517       -1.21544242204962
H            1.57968075802115        2.53274453159350        1.53005030583426
H            2.87858972737072        3.72786123965718        1.60476876429631
H            3.13920323182930        2.09857107212171        2.23862852915551
H            5.72807528073852        3.01701292561875        2.12292635016494
H            5.40296384829348        4.46237019277707        1.16243824289118
H            7.03030163446843        3.77475444529533        1.20041728095496
H            5.94967468240496        0.47927848505278        1.13189840903226
H            7.43140574348346        0.95735171419622        0.29744843158247
H            6.16162565519984        0.08980947257445       -0.57363320666870
H            4.61993441759856        3.31941355797676       -3.72218769938559
H            6.08609354317180        2.49159335192530       -4.26029180571960
H            5.94726003620188        4.23873575843723       -4.43606810770425
H            5.01177735918005        5.35086635183220       -1.09926645171435
H            5.86006786616315        6.02840360076280       -2.47708321375842
H            6.70376095193811        5.81030700348314       -0.93069697224156
H            6.86053148625515        1.13325988769808       -2.65288206884423
H            7.68924264984009       -1.13570349030318       -2.48555178666304
H           10.06391724759853       -1.57928790195687       -1.98175103438623
H           11.61851606508682        0.27666081381891       -1.66192046250427
H           12.05812015788356        2.68213588089677       -1.61478481594249
H           12.54305182357853        5.07439394507283       -1.63968000263225
H           11.81794737022254        7.36912828750957       -2.04826855677945
H            9.48172476687992        7.83748972225797       -2.69588633761027
H            7.87583440308503        6.03090161428120       -2.90420267673723
