67
 energy: -12.359327450468 gnorm: 0.000426051841 xtb: 6.5.0 (97a52f5)
C            1.01651085002575       -0.25067424160973       -0.49463549491661
Si           2.88140348128701       -0.17271897126522       -0.38103934385226
C            3.34498026620436       -1.50988991141035        0.84304820114115
C            3.49423241995583       -0.75264900433925       -2.04570203724105
C            3.04511153955216       -1.97337464967843       -2.45236083247956
C            3.39137759907804       -2.49414664903190       -3.70773916187506
C            4.19026511686032       -1.78346157146451       -4.54969255200483
C            4.68655432871310       -0.51587670957210       -4.16871420747798
C            5.52610019402209        0.24136189218220       -5.02017332288912
C            6.00518677427349        1.45422267169162       -4.62711492673460
C            5.67194674732827        1.96881852749501       -3.36933224821750
C            4.86210069647985        1.26709356502196       -2.53130949547381
C            4.33865455194881        0.00734663323183       -2.89768815575446
Si           3.40201681595817        1.94447248297710        0.47939161493522
C            2.50005494388342        3.12501230044691       -0.65613562911098
C            2.54050182651434        2.10104919088698        2.12518842734989
Si           5.68282561728649        2.40234922633064        0.81458188348515
C            6.12920483465078        2.76202173510480        2.59285347722698
C            6.46277432358972        0.74332925673531        0.41685769891710
C            6.41493557852170        3.78128820785919       -0.22616201176592
C            7.59811142724016        3.61684157340135       -0.96398804705104
C            8.59365249863783        2.65322383590824       -0.63140298226700
C            9.70096867038967        2.48498068142103       -1.39811054150332
C            9.90618988771642        3.27717795585639       -2.54342525709757
C            9.01504012159302        4.24421371307013       -2.87587143581191
C            7.85010077312784        4.46528743909515       -2.08891684848078
C            6.96094271820825        5.49326805406185       -2.38680050164696
C            5.85202390773163        5.74158264146432       -1.58430289557571
C            4.98085900773072        6.83799019797618       -1.83812631761573
C            3.93198881391553        7.09764754669824       -1.01766917270755
C            3.68696800517858        6.28399847985610        0.10454543937843
C            4.48273198980871        5.21717487971772        0.37017450287108
C            5.58564914875070        4.88646788198395       -0.46964152780833
H            0.68452557161826       -1.27269522663499       -0.65352107212779
H            0.66856308428074        0.35977758388190       -1.32316936696942
H            0.57125555207382        0.11966302835322        0.42450474667329
H            2.64309515582274       -2.33703279367591        0.78289816692022
H            3.32707537042084       -1.11195501102572        1.85402387204240
H            4.34147234775188       -1.88780791577838        0.63244817182676
H            2.41026864259712       -2.54512822938819       -1.79588991251242
H            3.01869524414842       -3.46111421007822       -4.00447653771263
H            4.45614835478749       -2.17997382403792       -5.51463001125352
H            5.78484552580356       -0.15836568777508       -5.98569868539676
H            6.64827655099368        2.02009698707124       -5.28145242639723
H            6.07540416384008        2.91644785763017       -3.05566865523063
H            4.62675669082201        1.65708232991384       -1.55966282719097
H            2.05134752196828        3.93158585861894       -0.08342713764734
H            1.71190339679724        2.60249791284797       -1.19049691907364
H            3.18461163618168        3.55232445891358       -1.38364947022105
H            1.47687910754177        1.90919126608495        2.01274256501403
H            2.67400384649714        3.10196427149719        2.52667237122980
H            2.95356077495080        1.38458067414278        2.83021895454031
H            5.79476352062677        1.94783845804440        3.22995883498417
H            5.65921383303639        3.68241166093753        2.92725256181203
H            7.20632216243462        2.86479157795536        2.69122880315277
H            5.71570414986047       -0.03315501963689        0.54739614181030
H            7.29160153211161        0.52537712999401        1.08454920004217
H            6.81053240321433        0.70909843156299       -0.61179112108320
H            8.48318047967877        2.08782078804619        0.27521587785916
H           10.43790432271466        1.74690049681467       -1.12575693188989
H           10.78678311189008        3.12306311226285       -3.14571527516003
H            9.18202447332440        4.86428152704241       -3.73999298813429
H            7.15537728618339        6.13171358906637       -3.22972789203522
H            5.17369092046321        7.46712065040485       -2.69016689763054
H            3.28324639206329        7.93462508579777       -1.21904112722829
H            2.85569193098865        6.51040342740071        0.75229939987110
H            4.28430946343202        4.59923089096585        1.22733928726244
