58
 energy: -11.145210406628 gnorm: 0.000908149258 xtb: 6.5.0 (97a52f5)
C            0.63875285242528        0.83536684826945       -0.06477217403585
Si           2.27595567858915        0.08687602321210        0.43702525342845
C            1.86970627005479       -1.67003050801600        0.93608270601695
C            3.29559908783962        0.04959129918120       -1.12256657838864
C            3.47722520995360       -1.13619531245574       -1.76887426920364
C            4.33986083606319       -1.23576851310442       -2.86979862825198
C            5.01757583465319       -0.14213966828357       -3.31362835558155
C            4.85024984898167        1.11135974851922       -2.68253127483272
C            5.54764608387663        2.26364847547870       -3.11457781495974
C            5.36546334648584        3.46194272691629       -2.49356496447390
C            4.47669219923252        3.57252566442991       -1.41701827466666
C            3.79255257755822        2.48152667834865       -0.97552003806787
C            3.96300733685590        1.21502132637431       -1.58230250275530
Si           3.30202150847376        1.20166316115594        2.23561242912144
C            2.20887339861710        2.70368453214692        2.49949692646412
C            3.26980667730139        0.25328958072227        3.84541033119067
C            5.08946782487506        1.67144540529869        1.90322443729650
C            5.83876955730870        0.76710074311036        1.13430469556221
C            5.50414264250359       -0.61416795602132        1.03267598779495
C            6.22041967263269       -1.46010712100631        0.24996582202896
C            7.32338000541179       -0.99107452030060       -0.48775388546697
C            7.69707338193912        0.31061776268467       -0.41045533430066
C            6.98313905812660        1.22745500814070        0.41100416988663
C            7.37018514012248        2.55886054078361        0.51968163100712
C            6.69646990750905        3.43851224571065        1.36130229895206
C            7.12223226067948        4.78779680562749        1.51380411126596
C            6.49714237775468        5.62036988277889        2.38325597518942
C            5.42267285494495        5.15582008214337        3.16496126031125
C            4.97503032584599        3.88095312024073        3.03595300600227
C            5.56039482466210        2.97927136917432        2.10058082083639
H            0.22267008029179        0.28196576926962       -0.90245173035078
H            0.76873368347547        1.87215231982843       -0.36396873028769
H           -0.06184992336520        0.79299323242959        0.76511719396367
H            1.21273859031484       -2.13145861850442        0.20387130042470
H            1.36511483852052       -1.66588194695058        1.89850958516800
H            2.77401988777078       -2.26595287461370        1.02198857396382
H            2.96258562867223       -2.01425088731318       -1.41827501393538
H            4.47280007664513       -2.18788100620059       -3.35727282880125
H            5.68970712286270       -0.21934704428483       -4.15102045360772
H            6.23129774428760        2.17841201582847       -3.94177554611928
H            5.90683866904015        4.33170929360534       -2.82860540441072
H            4.34487196757720        4.52490621060851       -0.92998322599972
H            3.12486186402659        2.56659649923810       -0.13811400536118
H            1.19952223812050        2.47727937512008        2.16797010074692
H            2.57116037905458        3.55696377054486        1.93272333432967
H            2.15998463908090        2.96957785868577        3.55179659561040
H            2.24196671736877        0.05219785020880        4.13509953462450
H            3.74764036100813        0.83646223797406        4.62744832906156
H            3.79520801823026       -0.69185850644220        3.74416014273217
H            4.66000989535598       -0.98035630783034        1.58786173709313
H            5.93898527760360       -2.49831072095307        0.18133164012480
H            7.87245067167935       -1.67449124244421       -1.11487016302001
H            8.54366485961934        0.66793378555102       -0.97124099140384
H            8.22227471860720        2.90765166824325       -0.03534309623046
H            7.95711102506267        5.13702388902211        0.93069223012428
H            6.83297103580227        6.63880571261037        2.49265046471484
H            4.96170550347005        5.81877290320040        3.87917429826139
H            4.19855584846093        3.51968933383759        3.68437836200411
