49
 energy: -9.922914336661 gnorm: 0.000154137302 xtb: 6.5.0 (97a52f5)
C            0.69737673317017        0.21877927460188        0.06929591444964
Si           2.54025377701368       -0.04765075769424       -0.18881026217188
C            2.89218899643979       -0.39846650708830       -2.00278944475219
C            3.56677906644749        1.47514250857389        0.16696072916222
C            4.80037642623349        1.24377568389972        0.69781111366972
C            5.62132662949545        2.29857256931433        1.11881859504031
C            5.20093192377640        3.58596523120327        0.98940646326717
C            3.94764520977647        3.87666755413849        0.40365055413153
C            3.50306985804778        5.20810487110615        0.22865387729734
C            2.31188540086177        5.47021988536292       -0.37636204919390
C            1.51208967891817        4.42069644578141       -0.84483374179117
C            1.90728004473356        3.12719450660264       -0.68451086769333
C            3.12424785265960        2.80888028122927       -0.03650988611885
C            3.03028652770811       -1.43508160982695        0.98159655054114
C            3.24469412256704       -2.74077506927426        0.51593250178795
C            2.72359209329244       -3.21752773682363       -0.72153226695630
C            2.97320958088554       -4.47886233979513       -1.15605352337570
C            3.74968772776357       -5.36222580544791       -0.38297445263744
C            4.23155752074563       -4.97363557235673        0.82389555832563
C            3.97638146065131       -3.66623213059846        1.32511058956012
C            4.40331210556004       -3.28126954374605        2.59212554162944
C            4.09564038866684       -2.02569330332523        3.10596333809281
C            4.48038708568647       -1.64890662621872        4.42318744722659
C            4.14485131225798       -0.43460793931982        4.92604624244733
C            3.40021873083499        0.47496200878210        4.15221059875779
C            3.02239878942184        0.15759286193570        2.88842065595856
C            3.37203051777661       -1.09306611813252        2.29896987863323
H            0.20341727339868        0.45936276482605       -0.86786530632396
H            0.51830729675607        1.01921828925330        0.78160001720343
H            0.25674592889489       -0.69414125419042        0.46039102053778
H            3.11915935796453        0.53711526439481       -2.50638348294712
H            2.03510354994149       -0.84731379620298       -2.49655404753321
H            3.75129543948926       -1.05601079117421       -2.10229548031261
H            5.13400674084017        0.22699287797568        0.82226611551683
H            6.58207873415362        2.08423210194345        1.55781964986191
H            5.82444611183647        4.39908246006518        1.31952423929119
H            4.12538930951721        6.01464309281204        0.57683545717951
H            1.98510488399231        6.48909651134928       -0.50681359863709
H            0.58121351182830        4.64178825269305       -1.34144931189627
H            1.30569726791633        2.33198765232037       -1.08364753941835
H            2.07447969928077       -2.57781365992611       -1.28966090572276
H            2.56481982152311       -4.81568154587925       -2.09507062543315
H            3.94389849603574       -6.35780889887847       -0.74753643404387
H            4.80630206777446       -5.65675142565038        1.42555595347380
H            4.94974809677399       -3.98010993885797        3.19948727647618
H            5.04092311741928       -2.34833827405884        5.01945564814309
H            4.44232238394872       -0.16283786608242        5.92578673426527
H            3.13361605730616        1.43239873674763        4.56943156045283
H            2.45172529205752        0.86111682366102        2.30935340457991
