107
 energy: -23.315917287127 gnorm: 0.000720534951 xtb: 6.5.0 (97a52f5)
C            0.39052496149095        0.00820568742256        0.14001622574690
Si           2.25756784192202        0.17828171300635        0.14722663336988
C            3.06719934463183       -1.49241386664377        0.22194170197699
C            2.45005117223057       -2.60782054115132       -0.30398029227158
C            3.08832705631093       -3.82848868611556       -0.28083566637915
C            4.36477653513219       -3.95924734562981        0.26354015883535
C            5.07554423218716       -5.23713741157116        0.30795395250858
N            6.22845109812607       -5.38656579023305        0.93585939981049
C            6.59376659407015       -6.69157031862142        0.77629521952760
C            7.72554018818533       -7.38214990982447        1.23582819055336
C            7.85986938166433       -8.71160738482465        0.92911043103354
C            6.89153545043009       -9.38421315985186        0.16994419974949
C            5.77696962076485       -8.73191703053398       -0.28972983309483
C            5.62622400334559       -7.37760949080821        0.01631714029803
N            4.64495551049567       -6.44264777293448       -0.29104638749426
C            3.47824071165790       -6.72316162049522       -1.09395981810118
C            2.36145211589492       -7.32286472964679       -0.52478792409855
C            1.23842633050911       -7.56665567922292       -1.28374053707253
C            1.21815954843929       -7.21958952651245       -2.62049304527791
C            2.32604028428542       -6.63077555781206       -3.19831551909119
C            3.45052299382813       -6.38559768974921       -2.44174815219613
C            4.97169130430376       -2.82122094081951        0.79035871899040
C            4.32900418017425       -1.60261626010373        0.76810456251538
C            2.83055486711083        1.05383008880763       -1.38792231000043
C            3.94756717294461        0.59846002236969       -2.05683030397844
C            4.40813169642622        1.26230821463047       -3.17199144213972
C            3.75287246435290        2.39860677737465       -3.64265446353119
C            4.22753072192635        3.12357121118379       -4.82265090425980
N            3.98947880982769        4.40633122275214       -5.02851451237136
C            4.59462457051684        4.72664126376542       -6.20905385741190
C            4.65251775157587        5.94844674968860       -6.89674358831828
C            5.31742842620058        6.00305095738351       -8.09428499967916
C            5.93212294859241        4.86571524625706       -8.63705012099178
C            5.89111239441121        3.66127312682118       -7.98380299469593
C            5.22396985745354        3.59106681988916       -6.75852897428963
N            4.98435603948992        2.55055597985222       -5.86782114425460
C            5.33943285927860        1.16990464841834       -6.08192793690955
C            6.67073281251803        0.79742371152661       -6.22083865964207
C            7.00932224792636       -0.52453035712991       -6.40807032622214
C            6.02401059342723       -1.49107189639527       -6.46149368495370
C            4.69694465820610       -1.13161402574390       -6.33041067400276
C            4.35605715992441        0.18974066080551       -6.14442319657377
C            2.63407548959529        2.85379449597236       -2.94836558340263
C            2.17672782962163        2.18385686152125       -1.83394514607430
C            2.77789492694176        1.14319416596004        1.64511307472921
C            2.66383924660908        0.55882582673799        2.88909628822750
C            3.10660002499743        1.22553376633555        4.00994044140032
C            3.67390674553806        2.49421066951295        3.90495802492079
C            4.15642103275213        3.20834872183802        5.08921278096619
N            4.16343413608986        4.52454310714488        5.19849077020309
C            4.65685833023150        4.80474241145850        6.43999134606128
C            4.87999113691807        6.03820136197235        7.07090462592770
C            5.40906264710855        6.04908649594852        8.33555747824484
C            5.73112578969021        4.85674172946531        8.99932807132831
C            5.52378601842275        3.63942366975116        8.40434654088176
C            4.97723312606219        3.61115077394711        7.11912587359495
N            4.66141330007475        2.57636851295691        6.24582977296617
C            4.94627370563796        1.17962968205314        6.45858196533469
C            4.41701682123683        0.50987004020681        7.55470159005379
C            4.67990846530558       -0.82834180406943        7.74826843854630
C            5.47573938480906       -1.51460406368174        6.85182560971950
C            6.01073328977510       -0.85807487420416        5.76087776158437
C            5.75014191768351        0.48014484902042        5.56618329273569
C            3.76313139991879        3.07942436099944        2.64376650385716
C            3.32321438042938        2.40475707521027        1.52552739112726
H            0.05443082987927       -0.40323780800036       -0.80738870114752
H           -0.07139627514959        0.98076595604542        0.28337638036411
H            0.07380636869753       -0.65056796334057        0.94349241081093
H            1.46837353245477       -2.51404054770124       -0.73614029660690
H            2.59562451813829       -4.69175572054580       -0.68451735951698
H            8.46609771219332       -6.86096099002329        1.81544834818590
H            8.72547341684644       -9.25133736888970        1.27642618747637
H            7.02717294432963      -10.42933059641378       -0.05469296347141
H            5.02662475967598       -9.23487262479821       -0.87321061322036
H            2.38790967918984       -7.58496910641880        0.51853317596690
H            0.37434405202486       -8.02759665959749       -0.83374637578850
H            0.33834344368157       -7.40985377103697       -3.21314035917400
H            2.31030495957992       -6.36170891499858       -4.24180227343721
H            4.31842508645398       -5.92393811928181       -2.87932134237092
H            5.95544319405122       -2.90939707375412        1.21640169195966
H            4.80393314423330       -0.72605018639078        1.17523093704821
H            4.45494665375293       -0.27961037571446       -1.69613979971417
H            5.28406929597113        0.91017875941538       -3.68607220658942
H            4.17555240484278        6.81631063252223       -6.47808367639174
H            5.36727479475645        6.93595714515828       -8.63132021555403
H            6.44295204509489        4.94081802452055       -9.58284149375346
H            6.35436389682697        2.78101025926774       -8.39202872478843
H            7.43103338337107        1.55724449183182       -6.17131770188261
H            8.04477668226348       -0.80504425641837       -6.51130869672940
H            6.29013260518914       -2.52541188642859       -6.60584083826853
H            3.92795120771399       -1.88553156022123       -6.37201845893008
H            3.32568631780291        0.48108188760368       -6.03815430920945
H            2.12912680398636        3.73667001803248       -3.29927316072790
H            1.31027081859142        2.53737063832594       -1.30114739584666
H            2.23756457111466       -0.42697664082782        2.97078525101784
H            3.01879716268643        0.76961282801799        4.97983364358354
H            4.63547286758865        6.94972124150607        6.55574522477721
H            5.58320909820051        6.99075454348712        8.82969022602808
H            6.14864359758839        4.89928425727332        9.99181301839045
H            5.77201666882796        2.71868634004774        8.90106467038698
H            3.79167679608051        1.05138262998600        8.24281348243120
H            4.26266021484070       -1.34074539070796        8.59965566353817
H            5.67952741837384       -2.56197855695020        7.00348611192428
H            6.63148977533765       -1.39302079539917        5.06091273008914
H            6.15981495571919        1.00121503401101        4.71851908552105
H            4.19017384870312        4.06299159476444        2.55571047548960
H            3.40620709082082        2.85147568625203        0.54996606951430
