48
 energy: -7.548123719779 gnorm: 0.000689176919 xtb: 6.5.0 (97a52f5)
C            0.99213168991229        0.03541788525515        0.95323438736170
Si           2.85440753430982        0.07002038372313        0.71157514840914
C            3.79995074775184        0.07466534735598        2.33431279094004
C            3.38920385457203       -1.33986365437405       -0.33635308928209
C            3.18961397066100       -2.61053821938399        0.12523376809866
C            3.57778637590826       -3.72251418048208       -0.63020503659780
N            3.37996916958419       -5.03187826065360       -0.14865041609844
C            3.21663229005522       -6.25599649845946       -0.98375243150857
C            2.14877067057498       -6.76990692129980       -0.00207407511297
C            2.31668678965051       -5.46795029293214        0.80093084593303
C            4.18917133586376       -3.49658586846589       -1.86488142197434
C            4.39451898814183       -2.22613232945289       -2.33962809508036
F            4.98611431563890       -2.04868826058723       -3.53970982580677
C            3.99323494594734       -1.09653058889076       -1.58119387033980
N            4.24136769335330        0.12277152813176       -2.13976925199370
C            3.94944557005426        1.32143796636297       -1.55778216765904
C            4.30981425465147        2.47909564098297       -2.29380292559438
F            4.91230608980339        2.34543290195750       -3.49394354378510
C            4.05861985637080        3.73184527533636       -1.79460518393635
C            3.44155672879955        3.91078212654672       -0.55504308062910
N            3.20273876000671        5.20235759427740       -0.04547253634871
C            2.14102178745840        5.57908643696068        0.93059869653784
C            1.92421599604226        6.89837066893218        0.16820594725125
C            2.98494294068658        6.43945415011905       -0.84803467208548
C            3.09297573529612        2.77109783167509        0.17798652272792
C            3.33733775876562        1.51785781375943       -0.30878851048797
H            0.69681258736529       -0.86013774519351        1.49160714700518
H            0.49614013097232        0.04201108014292       -0.01294256537496
H            0.66810987714686        0.90433160308230        1.51814467413507
H            3.57028856588946       -0.81733792943779        2.90931330573525
H            3.53455998294436        0.94723776500851        2.92366478551260
H            4.86755288955433        0.09766233134591        2.13663230699342
H            2.73874602652735       -2.76126228453447        1.08931532647601
H            4.14093695388834       -6.84629893672539       -1.01862197576877
H            2.83913270912407       -6.02053271626029       -1.98633356687217
H            2.44770022428066       -7.67232186044391        0.54704509256960
H            1.15334522756814       -6.89515871052808       -0.44813488740615
H            2.71026075479145       -5.59488383795086        1.81724644866749
H            1.44674786219336       -4.80061770070084        0.77557623481900
H            4.52151651197574       -4.32779442908258       -2.45751365023548
H            4.36057798730499        4.58672554448014       -2.36951386691338
H            2.54411919460666        5.68775710697669        1.94526982954874
H            1.29117602195281        4.88689801663718        0.89572021588854
H            2.21195760427243        7.79195908867498        0.73745073306094
H            0.91712299030561        7.01127280806275       -0.25457438157454
H            3.88994083636518        7.05848323552650       -0.88929554078714
H            2.59351013851640        6.21297182026320       -1.84732509943837
H            2.63695907259580        2.88688727425716        1.14448146102562
