74
 energy: -14.229673511165 gnorm: 0.000737968559 xtb: 6.5.0 (97a52f5)
C            1.11126194615765       -0.24548264482702        0.71383619877923
C            2.29764328747232       -0.00880717335618        0.65157615002217
C            3.68748940528617        0.26272601110952        0.61059704042738
O            4.37615798039789        0.10945712968847        1.85851283675364
C            5.72925534150627        0.37825818171681        1.81625357526656
C            6.45833570198497        0.24533400498096        3.01429419069780
C            7.80066930043995        0.49133558649161        3.06063417932510
C            8.50674294790028        0.88718437980920        1.91179298918844
C            9.91607107840571        1.13373107999277        1.99162932852343
C           10.70073980319141        1.51125340272966        0.95291613042648
C           12.09591608248664        1.74042366414651        1.03477298937483
N           12.88005756030868        2.11335050069747       -0.00995898447763
C           14.19886004499614        2.25039499480644        0.34280978260290
C           15.21676857156316        2.62638918484253       -0.57095092439098
C           16.63424431142359        2.71911106562620       -0.16823375359197
C           17.31757337416850        3.94867168196734       -0.18084886620725
C           18.63058667850703        4.03176774869756        0.18293098971351
C           19.35314420348600        2.88951995812362        0.58428722610610
N           20.68489638268964        2.97204748247361        0.94634723035689
C           21.43258617081937        4.24479248912574        0.96157966190598
C           21.93898670126662        4.62760170899874       -0.41297624820202
C           21.47928131091351        1.79282879412236        1.34357844109739
C           21.25989399531941        1.41898560544915        2.79435244577334
C           18.66429282708012        1.65951458511457        0.59788679247356
C           17.35103699138252        1.57778275819210        0.23515030681147
C           14.79693274967381        2.88594226523848       -1.90118619456759
C           15.53569574408547        3.20588802248538       -3.07964187525972
C           17.00360356131164        3.37062769199863       -3.21662525756563
C           14.62395566846128        3.33279479665436       -4.11386285015631
C           13.33016378461000        3.08026165571974       -3.61902805097710
C           12.06444938239271        3.04947188872179       -4.37533189973951
N           13.47588893249041        2.80813801142083       -2.31676301046090
B           12.31204738533319        2.40121213400844       -1.40502161700690
F           11.71349750643923        1.25129779985247       -1.90563258655000
F           11.40351176714196        3.44944857197913       -1.32493116161688
C           14.24423986178145        1.96745786868230        1.75464692110273
C           15.42892387232334        2.00536452902632        2.64649969869214
C           12.97010222483597        1.64569809584271        2.15512763061931
C            7.78186071816559        1.02144332328471        0.71434865448344
C            6.43859215940836        0.77576152643345        0.66557971650091
H            0.06709345442340       -0.45235365931831        0.77470523446297
H            3.84656983795885        1.29355260885546        0.27094093029591
H            4.16810108150011       -0.40471738621628       -0.11521150521155
H            5.92663600155375       -0.05768187808742        3.89872379684519
H            8.33563891258457        0.38157766370193        3.98833252069160
H           10.38051751394945        1.00207472686868        2.95240086975992
H           10.26378146079925        1.64695926367101       -0.01801057760023
H           16.77860511180643        4.83254926110268       -0.47546673865721
H           19.12160818889320        4.98715934930709        0.15497795654536
H           22.26445543651644        4.14832668189011        1.66757364325399
H           20.79062204253088        5.02325530169120        1.38547130098516
H           22.60698604812297        3.86130016956578       -0.80856385097268
H           22.48706543490700        5.57186509039263       -0.40150025152951
H           21.11682996013498        4.73008808137500       -1.12208398372565
H           22.53652589774414        2.00756809904451        1.15410459061494
H           21.23587446193067        0.96312337238234        0.67257276363800
H           21.54645386057488        2.23850445714694        3.45477016879777
H           21.83940888461959        0.54032820672946        3.08457461300137
H           20.20921835948346        1.20424590288382        2.99250940147848
H           19.18111256724823        0.76738517345157        0.90068455138440
H           16.84480081588876        0.62794923670200        0.23926711667765
H           17.53852616506965        2.63225943566170       -2.61909079323123
H           17.31619925369130        4.36400112458508       -2.89441112824251
H           17.31461883576997        3.24347027267481       -4.25399762056151
H           14.86486635747910        3.56740932373034       -5.13659694267883
H           12.00199807498304        3.88742282010119       -5.06990235582086
H           11.21496098834767        3.10726542582882       -3.69441040325209
H           11.97651319449142        2.12403125127133       -4.94466955892515
H           15.12994802241544        2.15130101987050        3.68494097359191
H           15.99018078262225        1.07259695880898        2.58914460274547
H           16.09679094056576        2.82382804164538        2.37755380502428
H           12.68099216391736        1.38054192979057        3.15693573104928
H            8.29269062892699        1.32239697387567       -0.18240287977776
H            5.91830194083541        0.88806533700150       -0.26784380680213
