33
 energy: -6.840416632101 gnorm: 0.000538802554 xtb: 6.5.0 (97a52f5)
C            1.85969556101943        1.29279438923051        0.21487483534793
C            2.47290456140843       -0.06656230798146        0.12268612348217
O            2.46824986065204       -0.80192271010211        1.08473010191942
C            3.08311411063518       -0.49655555781511       -1.15302013460964
C            3.59753924655526       -1.78288332225540       -1.25743255315353
C            4.17473177757144       -2.22564338066877       -2.42407224211349
C            4.26147978527237       -1.39089779506227       -3.53888378892164
C            4.86962949942524       -1.83209854889237       -4.78876875084159
C            5.33300163486277       -3.08152782662698       -5.07080027311738
C            5.88281209688099       -3.21551793826962       -6.38618843645340
C            5.83749534015140       -2.03657561992239       -7.12735413654954
C            6.33325120156878       -1.97324602610281       -8.43587771677472
C            6.87753930896206       -3.08916216136061       -9.01360164656584
C            6.93654453343166       -4.28986008820059       -8.29266440367203
S            7.57181198984931       -5.84205680080967       -8.79158030291198
C            7.17913736374228       -6.57472711776316       -7.26637084887984
C            6.60266635250279       -5.69615099494844       -6.42485640886325
C            6.45343594221707       -4.38217798323575       -6.99042024232854
S            5.10241595803938       -0.77567273382123       -6.17035882053225
C            3.74642616170713       -0.09975363013434       -3.42850092513170
C            3.16820721223085        0.34107010654954       -2.26225818395724
H            1.41287962642238        1.43442643953017        1.19805101374144
H            1.07571877026943        1.42168972808974       -0.53100541775086
H            2.60854842851737        2.07156908293914        0.07284686543180
H            3.53504779317482       -2.43093357056638       -0.40008217990465
H            4.56831648517966       -3.22485183694085       -2.47745722476610
H            5.29326187197032       -3.90519873536517       -4.37916041388032
H            6.27904388397918       -1.04241637319266       -8.97281191047397
H            7.26315701116575       -3.06089114988688      -10.01769540958282
H            7.37814300241110       -7.60590913629229       -7.04393209932219
H            6.27647085372706       -5.94301191326498       -5.42706419969825
H            3.80768438852810        0.55498876736520       -4.27981936698166
H            2.78078838595374        1.34294674577973       -2.20462090217523
