50
 energy: -5.677463694655 gnorm: 0.006979986371 xtb: 6.5.0 (97a52f5)
C            1.94070086638463       -1.06729150945003       -0.90883166799880
Si           2.80289548859666       -1.12320014366820        0.66958068749516
C            2.06156641296027        0.23782951362117        1.63865788293144
O            4.33716563350150       -0.57708115220331        0.30976514343572
Si           5.79058705501476       -1.39801439107666        0.50501880921381
C            6.07357358399638       -2.44791950959965       -0.94542601260223
C            7.16042394125890       -0.17279884019785        0.66842110542493
C            5.68933839840802       -2.41975946457609        1.99649387503309
C            5.04918759601864       -3.54346281802798        2.02729483857988
C            4.68088000516266       -4.23764444634265        3.11891458646218
C            4.05896023835029       -5.41766571913867        3.15723835954150
C            3.80576060280977       -6.32596832979356        2.09779608716185
C            2.92567024116015       -7.36386649017188        2.25530786377938
C            2.71205333359389       -8.22371890606733        1.27730790649772
C            3.34925204871977       -8.10475478799649        0.12358860651397
C            4.21140113112669       -7.11771058896833       -0.06500670344162
C            4.44591222150261       -6.23927233578044        0.89114041852563
F           10.59385937674261       -3.41390084566494       -1.68756640981726
C            6.93186807195862       -7.72742834145667        4.69958683709101
C            6.32529252619963       -8.27823953371282        3.69486441388863
C            6.56263893852586       -9.55425794092948        3.26955110554080
Cl           5.82295308669998      -10.24289456946408        2.02614136419830
C            3.95284185702176       -3.03791540860694        9.93543340044658
C            4.88393038964469       -2.24802025241267       10.30828343625796
C            5.62116926745860       -1.87735438973190        9.28556687381820
N            6.65966727436460       -1.05473802605799        9.36902085007295
C            7.38231787516155       -0.68421783919703        8.43439070441665
C            3.46473853533190       -1.84000878944375        4.81896399650769
C            4.98048453334852       -0.34990069471684        4.10190973171578
H            2.53267921490150       -1.44916750235200       -1.68053960866609
H            1.00706342155511        0.12095871396677        1.75209660222879
H            1.64291291789942       -3.82069663682208        1.88843894765923
H            2.26895541275072        1.17883666586832        1.18691881809833
H            4.99806417061681        1.52586741223737        1.46449933579868
H            3.10872597550328        2.91155489874088        4.16709495242132
H            5.94778908408583       -1.91394485855553       -1.83742427427275
H            3.17314668377002       -3.96821610518168       -0.31156852198767
H            8.11049318889284       -0.65143103339574        0.75955365134551
H            7.17512298635653        0.50579280060807       -0.15658370699299
H           12.48361060164038       -0.59145327970649        0.93127377862860
H            8.94839776663086        1.50110616039883        3.04071292108145
H            8.78497770488734       -3.47116559830644        0.67581666664937
H            1.77966618726114       -5.85004243260370        6.99491102842495
H           -0.78698814157499       -9.04931825737753        4.55514013158628
H            2.28523427577246      -12.59411116715755       -0.82013480574903
H            9.15964705666951       -6.08607148703502       -2.42980750758037
H            5.59134794353276       -7.69927087451530        3.15797077933127
H            7.52674133534773       -8.46635678901652       10.52300350733194
H            5.03104003083240       -1.97712725158772       12.07890166082400
H            0.39224167082288        0.99431317497020        6.83030754453437
