70
 energy: -12.972949050483 gnorm: 0.000411412315 xtb: 6.5.0 (97a52f5)
C            4.63459891579271       -2.14344027847300       -0.30869501757324
Si           5.94693034939980       -0.91571509240357        0.22849517098912
C            7.62737048935574       -1.29651186979587       -0.51303129806338
O            5.47129847734887        0.64206278014009       -0.20600660482450
Si           5.26887790349921        1.60619649518946        1.16214481982410
C            6.46823955452719        3.04682553225265        1.09822283793651
C            3.48358036509498        2.16935386715159        1.28014756335424
C            5.69013051686596        0.44858368390323        2.55722762785268
C            5.66569601731243        0.71461445410894        3.89191532562841
C            5.99852574542084       -0.29943874340422        4.82061228691502
C            5.96520854250608       -0.07847755507252        6.21216192005078
C            6.27404785080444       -1.06981942250154        7.10339681425589
C            6.65330770510200       -2.35392965031856        6.62303742394592
C            6.69234623897682       -2.58697341148616        5.27514518622631
C            6.36413845173410       -1.58296313962632        4.34189337427970
C            6.37832855440390       -1.82058689230626        2.94731899258341
C            6.04424613880777       -0.82213598424023        2.08459766359891
C            7.00317548025980       -3.43974118913485        7.56009520615804
O            7.39655977671806       -4.51526390351963        7.15127337703931
C            6.85413708509867       -3.18690508221913        9.00685991265860
C            7.09144081280442       -4.19891997774924        9.89692768887605
C            6.93398063923768       -4.01390339394895       11.28534342116085
C            7.16214867454432       -5.05785932983530       12.21260556893280
C            6.96931944764949       -4.84002801874865       13.54241925603240
C            6.54587558584902       -3.58935465014226       14.01162671991631
C            6.32893238829199       -2.55735962920781       13.15095365934345
C            6.51968626641779       -2.74437630886929       11.76173732272340
C            6.29579131418848       -1.71018530140364       10.83082937734760
C            6.45396923392136       -1.90883020878508        9.48629757341173
C            6.19808550117679       -0.79527847381434        8.55171959647329
O            5.92407135244883        0.31553062016241        8.96367401940138
Si           6.25091342688390       -3.61001494024315       15.84906039115976
C            7.35601449362348       -2.37677753346707       16.73015503670487
C            4.43414878883747       -3.33588574579514       16.22629839970323
O            6.68611404963676       -5.17886508951652       16.28579085233633
Si           7.19403127602908       -6.05273162033259       14.93655495096374
C            6.09802625105513       -7.55768542782626       14.70595675932200
C            9.00168104245794       -6.51174527371728       15.13639300998804
H            3.68851313425949       -1.89821745907696        0.16401651346831
H            4.92018212200837       -3.15203877253901       -0.02545770028527
H            4.50960325684893       -2.09956493126245       -1.38626837546134
H            7.57564192441240       -1.22984895895598       -1.59537816172364
H            7.94605428379668       -2.29643078683582       -0.23424999445098
H            8.35866707621520       -0.57985856038242       -0.15225284572647
H            6.26362002405703        3.65609179115191        0.22322164430412
H            7.48588503414451        2.67397892225531        1.03555257310498
H            6.37093278781944        3.66078902449194        1.98853001857322
H            3.21346094634199        2.72590120875513        0.38800915017473
H            3.34455066364456        2.80456562119064        2.14980218591032
H            2.83082988544164        1.30608066712593        1.36533576568183
H            5.38759527996503        1.69257460258555        4.24103321346487
H            5.68259441743179        0.88816572074831        6.58742066838769
H            6.97634749499686       -3.56228832458602        4.92411956393245
H            6.64602980457216       -2.79107468615521        2.57033121702624
H            7.39442675996060       -5.15976368877959        9.52266744421693
H            7.48108522642804       -6.02423187117205       11.86621227567466
H            6.00133957424468       -1.60414457640232       13.52476539913714
H            5.98773346446659       -0.74165952292345       11.18032004390847
H            7.10022269394895       -1.36262433574877       16.43840565946741
H            8.39413963693487       -2.56649865858529       16.47558299967116
H            7.23389432180681       -2.47829372191939       17.80424127835632
H            4.13158590003679       -2.33687442446350       15.92707805288950
H            4.25632932351518       -3.45658415374438       17.29044253995585
H            3.83536271611393       -4.06271635730892       15.68609875215390
H            5.06796851339311       -7.24480391203715       14.56585345451940
H            6.15583483942036       -8.19115958017672       15.58576941878806
H            6.41527345383134       -8.12744332193555       13.83770620535731
H            9.59935352583419       -5.61128907122269       15.23926238103237
H            9.34886879119091       -7.06986015200681       14.27210955871939
H            9.12949841892730       -7.12037202524874       16.02630291312027
