82
 energy: -15.734312181471 gnorm: 0.000969445100 xtb: 6.5.0 (97a52f5)
C            4.42972081797940       -6.13844857659342       -1.78202171745296
Si           3.45257916757319       -5.97657159740950       -0.19880069816147
C            1.80975847297410        0.99338806936910       -0.72738745719135
O            1.85768335194108       -5.75360733527273       -0.68793042722610
Si           1.94895566138843       -4.08726763949033       -0.79507981894562
C            2.05887080209452       -3.53907094692382       -2.58423112723945
C            0.35135243686516       -3.51165776034371        0.00429889989095
C            3.32557787449468       -3.38561519677490        0.23654233767292
C            3.60927055897590       -2.11570237076134        0.62225097478439
C            4.75096387260860       -1.85979827242693        1.43235849777803
C            5.08147508242931       -0.57117245640924        1.84644228130914
C            6.20380962377965       -0.33184392623379        2.63392930335952
C            6.56048597870139        0.97384311591529        3.05479264615732
C            7.66888464406933        1.20432244868626        3.81526418200264
C            8.49944194762980        0.10819931470174        4.20874881369872
C            8.17521260031132       -1.15857355728238        3.82091198950908
C            7.03109477851909       -1.42580521796050        3.02767967050633
C            6.70162188378497       -2.71475559498150        2.61747864019237
C            5.58042394995217       -2.95764275614306        1.82635785423745
C            5.23742083366737       -4.26955557808629        1.39169085062803
C            4.13638463134906       -4.45959610392386        0.61962436722420
C            9.70742314181511        0.33021229338231        5.02639631386889
O           10.40143946973256       -0.60385985464294        5.38039885895354
C           10.05460446152211        1.71457920825047        5.39968524430478
C           11.18563717344525        1.95083749319702        6.12451278274875
C           11.56954676092562        3.26252401530795        6.50147333981970
C           12.72779285919617        3.51140665401244        7.23256971188986
C           13.09373912974945        4.80832052354388        7.58818027300778
C           14.28019083034782        5.07818642329296        8.32696335616119
C           14.60769718030375        6.35511220541097        8.64681406738107
C           13.78852695531184        7.43207630359715        8.26085446730389
C           12.64699718710012        7.22459561333177        7.55829471355905
C           12.26063641475139        5.90325459115491        7.19681063375626
C           11.10065946708127        5.65115767867859        6.46692929096662
C           10.73957733222777        4.35516894110383        6.10991453286111
C            9.56802017038760        4.08134726952320        5.36033753690039
C            9.22359310737795        2.81015358853676        5.00639331897450
C            7.99839224946131        2.58496976899584        4.21632375186879
O            7.28046515841014        3.51463676290125        3.90033165057123
Si          14.48342414004673        9.06816537362695        8.80931457967096
C           13.32817566820115        9.92129180807783       10.01555622766127
C           14.90959418095039       10.14319014352605        7.33270944924115
O           15.90086392680068        8.60477391217939        9.60442584383609
Si          16.11559332180989        6.92861844790119        9.57322565710726
C           16.12978751761922        6.25714463367544       11.32438540938128
C           17.67902299467826        6.51025303765434        8.62549338926626
H            4.53626121971095       -5.17059535512313       -2.26199464335210
H            3.91718743834128       -6.81258386575155       -2.46145372586745
H            5.41866563679776       -6.53514061629896       -1.57141348075050
H            2.14227787445427        1.18907496432345        0.26834340329479
H            2.64099694850303        0.73800529415415       -1.34641885220408
H            1.10264074608185        0.19289982962274       -0.72087419444778
H            1.91732803050464       -4.39516546448038       -3.23672796305370
H            3.03051246219746       -3.09796441297252       -2.78509980061466
H            1.28938777407166       -2.80377199338691       -2.79917703892109
H           -0.49390400184302       -3.81360527348203       -0.60661845243031
H            0.34490768495518       -2.43099755224809        0.10975860288731
H            0.25278926279950       -3.96421417157214        0.98639382885693
H            2.97609926538359       -1.30517549563236        0.31287658434126
H            4.46012072917483        0.25363282283669        1.54906363611349
H            5.94688209059606        1.80740236902631        2.76512114076723
H            8.80814776392467       -1.97272265349820        4.12374699542078
H            7.32505348959489       -3.53811540116894        2.91492538777317
H            5.85287110847013       -5.10682877050173        1.66669438598992
H           11.80144180133947        1.11810820161110        6.41179765430951
H           13.35394150613233        2.68833601770508        7.52498465909807
H           14.91939911821371        4.26772298157716        8.62731962069021
H           12.03377115919346        8.05916370167090        7.26998906483727
H           10.47490172550768        6.47350812974465        6.17164423425316
H            8.93417259987877        4.89481110030993        5.05751832038522
H           12.40539375059345       10.20638907892148        9.51930168873421
H           13.09490387298342        9.25045283694067       10.83659479632824
H           13.80547049601808       10.81114482202901       10.41440269050434
H           15.56809844810838        9.59985787958551        6.66206326211578
H           15.41529452626740       11.04382594643724        7.66709951270550
H           14.00871838514429       10.42160625053889        6.79421332943232
H           16.23943292896223        5.17689141710869       11.31507790395185
H           16.95624483085658        6.69267224573626       11.87756758017466
H           15.20031031855246        6.51320968682516       11.82344432167643
H           17.60448807050535        6.89129833483213        7.61161174433124
H           17.82364805239634        5.43472313811280        8.58879010750929
H           18.53641311482179        6.96717907802394        9.11002923067347
