60
 energy: -10.952086393234 gnorm: 0.000977478296 xtb: 6.5.0 (97a52f5)
C            0.70738747879149        0.09759717812502        0.07437100505047
Si           2.47765244253858        0.08795156952717       -0.52713157635482
C            2.51217112330609        0.12102197367270       -2.39675380567663
O            3.25202467711831        1.43896135261610        0.06675147518795
Si           4.84095404198132        1.88815319116695        0.36270582285148
C            4.73563198686066        3.64293681104823        1.01252363875510
C            5.80621343992985        1.94393006326785       -1.23957827413249
C            5.66351586709018        0.75571332953111        1.59418449797158
C            6.37797507817268        1.41001529656778        2.55389994911831
C            7.09600941029202        0.72877049899410        3.56493491338453
N            7.76308625101497        1.44894445130804        4.48941069338554
C            8.42550233427367        0.77260134624798        5.43838454994281
C            9.14191568104210        1.50570944324633        6.42285975255388
C            9.84668861639687        0.88048944879948        7.40103561308657
C            9.88507828472423       -0.52393058463085        7.45948971285638
Cl          10.79033253002914       -1.31810313599034        8.69078211815132
C            9.20507198450922       -1.26766702935483        6.53384085733208
C            8.45654069798629       -0.65318483882156        5.51009445680214
C            7.76154264281084       -1.40798767079394        4.54199041221115
C            7.75599037403703       -2.89079663740776        4.56984984470847
C            8.25810215951902       -3.63274129395453        3.49616703110565
C            8.23664917677232       -5.00849490897916        3.51843025187450
C            7.71612463167001       -5.67638940060940        4.60958831687436
C            7.21697116352373       -4.96287829699127        5.68161734230060
C            7.23556152762862       -3.58702469368112        5.66496089815336
C            7.06658350505786       -0.68948216873501        3.54892863955740
C            6.31481712198235       -1.33856741151039        2.54072417705759
C            5.63051003958424       -0.64982022919865        1.58649928838263
Si           4.79962692196251       -1.76470384659335        0.34049011975738
C            4.66483662489914       -3.51792128022530        0.99206379297518
C            5.77064779936104       -1.84448157533651       -1.26150667711755
O            3.21895300506819       -1.29878960620219        0.02617327998001
H            0.19975801502222        0.99371620022394       -0.26934450674757
H            0.69608771352879        0.07993870182136        1.15974103004865
H            0.18112579990959       -0.77595993762575       -0.29823667757036
H            1.94346236043669        0.97016955064441       -2.76320555684516
H            2.07988690562971       -0.79302418356789       -2.79231937003494
H            3.53429474543256        0.20788731828846       -2.75034434913620
H            4.13127511217572        4.23756928337148        0.33427273328372
H            5.72066758094937        4.09406232184896        1.08726551585357
H            4.26379507841004        3.64684485585556        1.99059811784238
H            5.24505019792615        2.49623280780856       -1.98726982673129
H            5.99260471337343        0.94249780274927       -1.60998910127461
H            6.76036918287654        2.43756595361346       -1.08036048037990
H            6.41242955584690        2.48424408612169        2.55755258137134
H            9.11524174440509        2.57999466016096        6.37341607058723
H           10.38728905287167        1.44460259971502        8.14159206813532
H            9.25582914323230       -2.33930282105600        6.59302198852861
H            8.67197307640515       -3.11010394749720        2.65077651473360
H            8.62750307439753       -5.56581442334181        2.68288850366329
H            7.69932764694304       -6.75392487903916        4.62455334624018
H            6.80947672839940       -5.48484472366961        6.53193019042595
H            6.83423411436686       -3.02872048531197        6.49337081948770
H            6.29019803735918       -2.41253259293675        2.53632801639384
H            5.64123423051499       -3.98942704834739        1.05516723628820
H            4.04114088413054       -4.09941208350222        0.32000511964793
H            4.20361536950708       -3.51457316991049        1.97522525260526
H            6.82403556727331       -1.65735217407879       -1.07354676586512
H            5.39938067930128       -1.10995713298702       -1.96765380915748
H            5.66430506944161       -2.82873788445182       -1.70773677947904
