60
 energy: -7.453480700247 gnorm: 0.000503260903 xtb: 6.5.0 (97a52f5)
C            0.57222122071875        1.12794454495280       -0.55593916296949
Si           2.24437597355659        0.95618317309418       -1.31220173243683
C            2.55903378072003        2.58721286320873       -2.09147049472913
O            3.25106254077317        0.94545674611535        0.03433050200493
Si           4.82562315081192        1.42223828976897        0.38786562477825
C            4.77263070148603        3.17451381404290        0.96007222988145
C            5.90343286971368        1.32986392963063       -1.10623369046429
C            5.54202474468350        0.35500398567692        1.73520008655853
C            6.47508697309973        1.01818948131925        2.42229768810365
C            7.21952975146490        0.62263137311775        3.46942260281768
N            7.98583034591685        1.37866665159849        4.20327890877551
C            8.67690146038007        0.74592272526595        5.17059397933020
C            9.34978155553289        1.53608738692948        6.10080268138201
C           10.01866889669609        1.04513665317338        7.10091020794949
C           10.10531575952510       -0.31391567034590        7.29651187081773
Cl          10.98330813082562       -0.95032229087671        8.64012461093851
C            9.50619462400904       -1.13998084051587        6.42594974086059
C            8.78847227207477       -0.68381361093512        5.33855762300855
C            8.26942955915598       -1.57678577039557        4.43199354041770
C            8.22899820387299       -2.99187401813225        4.45589039583805
C            7.96265791417140       -3.70034495003576        3.31548807763411
C            7.90645346208070       -5.01729709443284        3.33370023566043
C            8.10568149050338       -5.68317468646601        4.45928252261027
C            8.36563040945231       -5.03489801198947        5.58298209542098
C            8.42932522188574       -3.71828171877076        5.59858998916840
F            4.90502094927926       -6.38946980486380       13.03502201000411
C            5.19118905661762       -1.41861647057092        3.29321172238970
C            5.01070270201963       -0.94169699328392        2.05255749329979
C            4.28304483502645       -1.70161893965806        1.03113594505643
Si           4.65537510709407       -3.40956834351660        1.40951558896376
C            4.41976034721330       -8.18715849688424        2.23165963586443
C            5.69599694805748       -1.52853512093134       -1.03280608639392
O            3.62361385495124       -0.65265548128742       -1.70056649614186
H            0.57757957818326        1.92693303322023        0.15020104698842
H            0.25692709651975        0.23196789969254       -0.07043533511772
H            1.87813908643039       -3.25225072465969       -0.78654456896996
H            2.42778018277306        3.38070558126211       -1.39183466788075
H            1.92501174012840        2.74553540740199       -2.93426847994661
H            1.16564747080205       -0.43125902643976       -3.95402873446649
H            4.34090121908758        3.81814088810499        0.22810312235903
H            5.74251087711085        3.53175800495696        1.22277030003441
H            2.44414558552267        1.69248004754561        2.26953095010717
H            5.44929978775272        1.78808404166290       -1.95506649324585
H            6.15362319240386        0.31789854526396       -1.32950097891660
H            8.50198861239427        5.14288408149030       -1.38427908752048
H            7.63228913458583        6.99551925492244        2.73301742273350
H            8.40147251637212        8.73064380136856        6.71190118942562
H           12.23372194081923        4.89889165631372       10.30395088676120
H            9.88749525814115       -3.06221285142686        9.98111977447724
H           10.26609553448172        1.54717563733490        0.11768089996314
H            7.13989620758561       -7.16855856712475       -2.60215979678255
H            6.98358207655801      -12.08120028580799        3.72759786328417
H            5.48291759765387       -8.84329659108913       11.46482103587787
H            4.81873069563527       -2.33399152498875        3.64673086303300
H            6.02956877229926       -3.56936344487426        1.77154901610820
H            4.41959994276767       -4.20984133656100        0.24567479517072
H            3.82241286795980       -3.92125715678785        2.45712743466886
H            7.20117524322540       -1.47120960054927        0.12578629978781
H            6.19705369159308       -1.92996027232191       -2.79721824864625
H            6.48258929984876       -3.24362975814120       -1.01032638040981
