62
 energy: -11.514402239621 gnorm: 0.000442123085 xtb: 6.5.0 (97a52f5)
C            0.78450448937548       -0.07884191357649        0.20095813251709
Si           2.54827531782474       -0.06982196207684       -0.41945016073845
C            2.57302110104158       -0.07375518860875       -2.28972948552707
O            3.30414949686706        1.30397211028965        0.14113330070536
Si           4.88007530781137        1.78506310552128        0.44895627492228
C            4.73282692907365        3.54926514653648        1.06469732660529
C            5.86300674059759        1.82527848697228       -1.14298697744759
C            5.70719378322921        0.68868605470001        1.71009949145078
C            6.40413010381394        1.37226071338689        2.66116309185087
C            7.14109005070054        0.72098964161223        3.67914924536724
N            7.79253305316558        1.46669623355582        4.59018155548192
C            8.48078082895381        0.81597774862401        5.54250256725494
C            9.18568990336958        1.57416200725677        6.51017686201319
C            9.91486098558793        0.97406352151016        7.48730137732776
C            9.99113042277281       -0.42368090530897        7.56362045275792
N           10.78627002435305       -1.06622578755597        8.61134910334698
O           10.82210075276593       -2.30720872657015        8.65190345101967
O           11.39675452758454       -0.34976079257348        9.42166904135843
C            9.32452022652346       -1.18767653715816        6.65514488360102
C            8.54934884412770       -0.60422401269656        5.62871234649694
C            7.86720252361899       -1.38615200185631        4.67599200558773
C            7.89878633921424       -2.86836789353751        4.71793803912933
C            8.43581170632125       -3.60548827098192        3.65892670172935
C            8.44627879969300       -4.98087622875900        3.69166070292342
C            7.92355497672413       -5.65224071361443        4.77914655558549
C            7.39028783403098       -4.94278924321002        5.83697977505872
C            7.37660118283032       -3.56724391290669        5.80950243621385
C            7.14822767283171       -0.69741333198216        3.67955510423780
C            6.41122103230535       -1.37773513332054        2.68122732538073
C            5.70839872551554       -0.71805982050437        1.72052310385720
Si           4.89970092830981       -1.87226026613355        0.49587947090072
C            4.76866762924052       -3.60856642439790        1.19295991847610
C            5.88333580149803       -1.98206721906252       -1.09689856217371
O            3.31905813900807       -1.42955677127737        0.15565547772319
H            0.25771155867737        0.80242438359153       -0.15178885237514
H            0.78645422099472       -0.07724430435598        1.28634784088726
H            0.26840241787847       -0.96749376729552       -0.14910548525935
H            1.99384711011279        0.76152225698368       -2.67104457939231
H            2.14997957864743       -1.00007442510096       -2.66590463924279
H            3.59270779165637        0.01730839761997       -2.64900863686629
H            4.12419050173446        4.11811270480637        0.36848825343464
H            5.70697057159214        4.02268956264328        1.14236895185093
H            4.24879707051249        3.56186649616966        2.03654204821506
H            5.31864662320144        2.38664832454342       -1.89614309254747
H            6.03561779426641        0.82108209591134       -1.51221158723538
H            6.82378967155686        2.30253291858375       -0.97452579687974
H            6.41328261905722        2.44687572750110        2.65199584502329
H            9.13292690093043        2.64702866414304        6.45096075053797
H           10.44875520785793        1.55950471106958        8.21580573512184
H            9.40233166783377       -2.25707667295287        6.72351421715671
H            8.85064662561775       -3.07938243251217        2.81631440656750
H            8.86404826396356       -5.53521511809676        2.86736846522731
H            7.93193382518586       -6.72958371475238        4.80242132305551
H            6.98169806445692       -5.46770168406397        6.68482361050606
H            6.94998900644037       -3.01191504314030        6.62707280875784
H            6.41585910125650       -2.45192369091951        2.68926500181362
H            5.74517551894995       -4.07702473861447        1.27243807659411
H            4.14853966140863       -4.20844665874128        0.53393878761204
H            4.30318653745549       -3.58070406131501        2.17358121488178
H            6.93455093847107       -1.78608353693431       -0.90658088484466
H            5.51359774877229       -1.26450438363387       -1.82106115018440
H            5.78468722082924       -2.97584372343348       -1.52329256741125
