60
 energy: -11.009453378444 gnorm: 0.000927756618 xtb: 6.5.0 (97a52f5)
C            0.71391757687020        0.11202640912626        0.16677771256744
Si           2.48192026646456        0.10626877443709       -0.44168608437561
C            2.51401879517748        0.12456555612362       -2.31176467757233
O            3.25131556998995        1.46552973808993        0.13785369133882
Si           4.83496053276953        1.92482410771266        0.44266220155514
C            4.71278210972770        3.68153724795529        1.08463060857299
C            5.81118255073997        1.97942308800660       -1.15323579177153
C            5.65783659935070        0.80321641168239        1.68377474969297
C            6.36651399868810        1.46600084334944        2.64017807379859
C            7.09540514300157        0.79341064657015        3.65150964752625
N            7.75527896146964        1.51989346007352        4.57077552891945
C            8.43163361603910        0.84779409068237        5.52001605190471
C            9.13937976818613        1.58654701269625        6.49911591156835
C            9.85549447197578        0.96846636181347        7.47686922098263
C            9.91216705474133       -0.42962596596389        7.53546064309681
C            9.24545384271724       -1.17945888828650        6.61806090757211
C            8.48085561940980       -0.57332693417907        5.59165573865571
C            7.78961025169164       -1.33454320120590        4.62728233621020
C            7.79394865267586       -2.81788608414287        4.65174034881129
C            8.31462920644262       -3.55393508751693        3.58391979814996
C            8.29492688654974       -4.92843838224529        3.59885620463148
C            7.75810628405723       -5.61466868264008        4.67583453062094
F            7.73916437324460       -6.97263548133478        4.68699641624436
C            7.24123687264116       -4.89614305950712        5.74148011117795
C            7.25674487766825       -3.52153132911856        5.73294292353152
C            7.08203137948640       -0.62494843978373        3.63695610918861
C            6.33411840831444       -1.28350572027155        2.63124306188906
C            5.63951366796614       -0.60381691124765        1.67885080046198
Si           4.81311377680169       -1.73111301513055        0.44135359342964
C            4.67948149401657       -3.47936937522176        1.10725799872296
C            5.78453282104644       -1.82017943072281       -1.16009284023146
O            3.23269334643346       -1.27056099282030        0.12167830656164
H            0.20031254394360        1.00245801740412       -0.18260453523115
H            0.70708389393725        0.10378605815616        1.25222709670800
H            0.19073465331216       -0.76744877559348       -0.19593088439321
H            1.94211100475362        0.96897565236911       -2.68403631271529
H            2.08516659204742       -0.79394996197470       -2.70051805468351
H            3.53552453706622        0.21289512937084       -2.66668057140638
H            4.10788229230044        4.26852420245213        0.40030484143819
H            5.69387605398885        4.14036480945404        1.16345435832917
H            4.23478545338332        3.68510035331856        2.05957762836110
H            5.25551950558821        2.53312295018409       -1.90402957042027
H            5.99767969905958        0.97768526276038       -1.52294366694246
H            6.76567574968423        2.47050809201846       -0.98785593608592
H            6.39125525486748        2.54046034317030        2.64142105691157
H            9.09907544302870        2.66055201278716        6.45013002177520
H           10.38603140181465        1.55422260279082        8.20942687084688
H           10.48808468739683       -0.90954387937544        8.30958595615795
H            9.30046652229382       -2.25278085334566        6.65995770175695
H            8.73977605407169       -3.02701323946277        2.74692466597805
H            8.69599944285999       -5.49302331227635        2.77599573507640
H            6.82396557347934       -5.43619127329803        6.57275096766552
H            6.84040036851724       -2.96920496049378        6.55778217954080
H            6.32291959944984       -2.35767580814482        2.62645890967796
H            5.65541101446732       -3.95143190345743        1.17218630789635
H            4.05411722023153       -4.06517926125884        0.44054126635325
H            4.21985464482708       -3.46798586589029        2.09103186006534
H            6.83931973783706       -1.64127354496823       -0.97215208854901
H            5.41867769066612       -1.08266224540834       -1.86598675945741
H            5.66973458877210       -2.80356736826370       -1.60626287808734
