60
 energy: -7.072513318362 gnorm: 0.004111058007 xtb: 6.5.0 (97a52f5)
C            2.07703911238510        0.17512591565878        1.31551812565767
Si           3.16158629551884        0.98898719337959        0.07862650014889
C            3.52361746127950       -0.24265097942882       -1.23438273019148
O            4.56936656969371        1.36718437167766        0.83793873088810
Si           5.96654555775805        2.25319108761290        0.54604147662007
C            5.61888057721598        4.05052522262433        0.77051367903777
C            6.56764519155326        1.93780691343177       -1.16871005229961
C            7.22461216065011        1.72577807222710        1.73575932945873
C            7.33108478388891        2.19326349971084        2.93751006154752
C            8.03713003672883        1.63844208623809        3.93860100464683
N            8.22653554726233        2.11571037460589        5.13340355719611
C            8.88572662518355        1.27938345383186        5.97192108839533
C            9.58516305034589        1.83629093829382        7.03737336539117
C           10.39045347895388        1.13751055547581        7.78557752877910
C           10.58577313700483       -0.16759882426077        7.56149663219740
C            9.92784558487771       -0.79266503533554        6.62747194622217
C            9.00097594818576       -0.15142823769075        5.81452898327683
C            8.18573735490311       -0.92823044467434        5.00703330151292
C            6.82311425995950       -0.79758998498609        4.62405264368692
C            6.34732602447226       -1.36330143024565        3.47189698375026
C            6.91830896232939       -2.11980025687429        2.55521245701437
C            8.08805340095101       -2.71091747330835        2.57144971574781
C            8.64291464194754       -3.19886355669538        3.67357018109407
C            4.02823191756443       -6.53267907091107       12.76066679954752
C            5.96245159967359       -0.10858139382262        5.41130261679260
C            1.92556970313262       -3.28507719004691        0.54756385007521
C            3.08280055263534       -3.44902624454712       -0.00094296279659
Si           3.35837402413392       -4.63843896539369       -1.16283942067544
C            2.13755123268864       -5.77477829705772       -1.78095116971612
C            6.95646575686029       -1.78027758417185       -1.15404696359586
O            1.29764802303421       -4.92704533934311       -2.44424432052863
H            2.51863051568031        1.95083000538863       -0.44313556682301
H            1.92922062145483        0.79041180255525        2.17332152999756
H            1.13129275138601       -0.09752529427142        0.90612920294538
H            1.30245363462437        1.44011127674999       -5.61443174685824
H            2.63609317456111       -0.62201632373657       -1.68879818394595
H            4.16382007791981        0.15523781279567       -1.98794925103520
H            1.89646615682343        6.57487575042807       -0.09180573203956
H            6.51275631967412        4.63246568077140        0.77606040505753
H            5.06541973961144        4.22883881884484        1.66406638448402
H            3.65866588951723        4.74330249159710       -3.61233212817589
H            6.76408320609594        0.90253510898297       -1.32836261622157
H            7.44121066765511        2.50632349927250       -1.39390773389854
H            5.96971523828949        5.68706779719099        4.35937866767952
H            9.95684220784444        6.49358149895014        7.61266103421862
H           12.84654014912902        5.86271023822413       12.76596245872581
H           14.19140478705763       -5.04996089385031       11.88195507860061
H            9.46282947295841       -5.04536016962342        3.50346047011503
H           11.31361240374919       -3.24191172239703       -0.73768591243097
H           11.26268898032107       -7.91268619064164        0.79213909466713
H            7.23758964571266       -9.19755233734499        5.43147702979089
H            3.89456059921444       -7.48769221099271       12.42023076797029
H            6.25322808797615        0.35754073879175        6.30602354118065
H            7.71988907755515       -3.67652228826575        5.40073140817056
H            5.84159919027543       -5.81029058738451        0.23733570972182
H            4.98111369087685       -6.85660381314105       -2.28180764598101
H            3.46345382464498       -6.18549962525467        1.60317824848742
H            5.16965320941970       -1.04946465873206        0.86564170509433
H            1.63790372316044       -4.44689812904859       -3.26880415449795
H            5.66534439684633       -3.75489765907233       -2.96402500300071
