97
 energy: -20.263818456389 gnorm: 0.000486690976 xtb: 6.5.0 (97a52f5)
C            0.81532035101909       -0.34785648289698       -0.33932792746031
Si           2.68882032148243       -0.29042175305121       -0.35395992464373
C            3.30795218807375       -0.47719717859238       -2.11671551097703
C            3.39175259103264       -1.58845238909282        0.75806846027707
C            4.26271707016756       -2.51134169830035        0.23510002696448
C            4.86498985294613       -3.48411953356576        1.03743671304496
C            5.84706919339785       -4.42799006512400        0.46859410642490
C            5.97253553587972       -5.73228414784896        0.95477855746573
C            6.89730061108853       -6.59850579049420        0.42418534778510
C            7.73941514198659       -6.20066954945352       -0.61418752058213
N            8.70306565735069       -7.10107570402552       -1.17135661644159
C            8.41215612406223       -8.50400457111320       -1.27321506309937
C            7.12422861492476       -8.94651640064904       -1.56688601660822
C            6.85032613354273      -10.29142580077780       -1.67714455333164
C            7.85728796021761      -11.22011142947591       -1.49777010331031
C            9.14024689439128      -10.79776004928070       -1.20728369504059
C            9.41615012704251       -9.45326416296072       -1.09585659595656
C            9.94936230423038       -6.59554935721864       -1.67845529352599
C           10.62907274975472       -5.57785276036933       -1.01257953681916
C           11.81606383758958       -5.08434818829538       -1.50613241700800
C           12.34786514726651       -5.59846175731215       -2.67298229723078
C           11.68785617710383       -6.61003868766585       -3.34371262413800
C           10.50068553447227       -7.10501729587759       -2.85200604384603
C            7.61802782780915       -4.89936221780927       -1.09958779773110
C            6.69353664821288       -4.03330128817549       -0.57141503225362
C            4.52768594830957       -3.50715054825772        2.39234610161069
C            3.65491338512697       -2.58526277140206        2.91851870361925
C            3.08343038754811       -1.58272407362543        2.12266607927464
C            2.16732426015294       -0.61953713120141        2.74236830986231
C            2.12052048648956        0.72303091124067        2.58237148413568
C            2.97405200986139        1.57291178725189        1.74624388199100
C            3.46553782708843        2.77365318743524        2.27648403256468
C            4.28625222070944        3.59724770587621        1.54402431904713
C            4.64917817207818        3.27122823393616        0.23526026073389
C            5.58568220881477        4.10811514114468       -0.54020913082297
C            5.51493804789296        4.16886022769451       -1.93514811962885
C            6.42132377563131        4.90300860049085       -2.65982664729512
C            7.44088894195685        5.61145222050041       -2.02508092742926
N            8.40732481552943        6.34870970641982       -2.78062620821458
C            8.05201824262709        6.93896787554286       -4.04132390537723
C            6.80629915474145        7.53435682775495       -4.22669129415020
C            6.47297883172227        8.10578377114764       -5.43445486074342
C            7.37675202565367        8.09432252580252       -6.47940008522679
C            8.61658629673336        7.50847926305257       -6.31153406530123
C            8.95177595677340        6.93621308092949       -5.10489647315408
C            9.76007226599964        6.46134081800993       -2.30761854151659
C           10.39761942013983        5.38049068765272       -1.70233095066512
C           11.69839360606261        5.48728098845167       -1.26346601517279
C           12.38736568804049        6.67441180617604       -1.42089619590595
C           11.76973042644359        7.75520816347049       -2.02029060610558
C           10.46912371567443        7.65067908098046       -2.46033295843500
C            7.50674805882852        5.56453468250329       -0.63298920960629
C            6.60122954935419        4.83048348489369        0.09291684110413
C            4.12265928383870        2.09636413791545       -0.30862855341248
C            3.30183444860414        1.27208042781802        0.42005497643294
H            0.47333735243302       -1.30347239219380       -0.72656338959044
H            0.41734108875837        0.44785547642294       -0.96265359839408
H            0.43510228642005       -0.22377714500426        0.67001953711019
H            2.96758763849657       -1.42193189132460       -2.53116310824268
H            4.39352899503824       -0.45200257491380       -2.14605650709545
H            2.92121027207978        0.33070596782494       -2.73151535991046
H            4.48029253363908       -2.49123955054088       -0.81751262735220
H            5.32306607197085       -6.06208912316453        1.74690406245062
H            6.98986861687706       -7.59758306082744        0.81280024770385
H            6.34609404822412       -8.21881929411520       -1.71801218063275
H            5.84945415988607      -10.61983312729900       -1.90578447634478
H            7.64227182607419      -12.27265367850033       -1.58550952897292
H            9.92647622186305      -11.52175884740022       -1.06750625243614
H           10.41204370851104       -9.11888223939069       -0.86291487680733
H           10.21378906189155       -5.18582304361523       -0.10057117595663
H           12.33077974915587       -4.29581719842833       -0.98158051716106
H           13.27611377261851       -5.21036042332577       -3.05970191115109
H           12.10128674339665       -7.01051251750370       -4.25505262974132
H            9.97688548877662       -7.88509447861163       -3.37632090472161
H            8.25913375602540       -4.58366327635932       -1.90397170345430
H            6.63094081289784       -3.02600778481652       -0.94506775489409
H            4.98291055407255       -4.24132472862570        3.03411681131634
H            3.41682114863873       -2.60989398562823        3.96827930591562
H            1.50692285699385       -1.04411577496956        3.48335934091537
H            1.42738021783430        1.26376726737128        3.20888455864086
H            3.20479739271202        3.03702385175425        3.28742138299909
H            4.65238375190217        4.51093540502377        1.97893942249600
H            4.73123437998783        3.63683735913386       -2.44572550787751
H            6.36512723748046        4.92475801478685       -3.73407283877250
H            6.11012390795153        7.55009652412972       -3.40632554345029
H            5.50610134213242        8.56417479866043       -5.56423660503734
H            7.11531058598295        8.54255849071393       -7.42414772639862
H            9.32224567151374        7.49832429206401       -7.12627593951454
H            9.91274286907557        6.47090524197513       -4.97109569555586
H            9.86021386329309        4.45469594191313       -1.59284284287510
H           12.18061385814765        4.64262034679076       -0.79879379497290
H           13.40577290129953        6.75689152795784       -1.07760194206829
H           12.30676132855814        8.68158498659804       -2.14382973822772
H            9.98101155305980        8.49016817448070       -2.92401022887048
H            8.28361571821390        6.11531684303534       -0.13207891128048
H            6.68839215949810        4.78595209813925        1.16449568954533
H            4.39489844316778        1.81238096739167       -1.30883342534091
