47
 energy: -9.285739561618 gnorm: 0.000582602884 xtb: 6.5.0 (97a52f5)
C            0.88384450597863        0.10884443606509       -0.35207236211534
Si           2.75761648622392        0.10273914114167       -0.33853667592685
C            3.39545657534141        0.11184716077370       -2.10451072504101
C            3.38712197835711       -1.36303852563398        0.59662896673828
C            4.15810473822892       -2.29029568082412       -0.06093746422181
C            4.64196504379054       -3.43080848829617        0.58111132380402
C            5.45814782049771       -4.39141988381623       -0.15282285989364
C            5.96239160283592       -5.57163015090284        0.31742871032006
C            6.72525867709721       -6.29228756391452       -0.64136112783384
C            6.80720761962540       -5.67270267474309       -1.84068820677821
S            5.94195961976193       -4.17853533935663       -1.82075979865789
C            4.31338201824538       -3.60677161382765        1.92563798729460
C            3.54532169180204       -2.67957491509885        2.58880921166988
C            3.07452938563045       -1.52625344922405        1.94901110080152
C            2.22228311048501       -0.60204710643479        2.70368711052770
C            2.23636232566517        0.74696970774797        2.71803047645719
C            3.10639016395655        1.67176973142624        1.98295320146586
C            3.61313016866176        2.79111864638251        2.65412832263542
C            4.38446470343923        3.72417305535328        2.00463410556222
C            4.67955460210270        3.59640395946793        0.64830268623637
C            5.49643600701779        4.59885139598036       -0.02683897477168
C            5.82284602303892        4.63166252414579       -1.35377526080406
C            6.63378149722959        5.74049404086851       -1.71922386725060
C            6.93206955995873        6.55411866369773       -0.68121603453886
S            6.21712864235628        5.97395032398006        0.77958581499540
C            4.16416021681050        2.48711293061750       -0.02630191221944
C            3.39407269679155        1.55013075268910        0.62010148320068
H            0.51454854471310       -0.77824336445395       -0.85848263233693
H            0.52012115425436        0.98942571941707       -0.87380443685206
H            0.49631679585940        0.11919730146545        0.66207231488952
H            3.04195269671917       -0.76974535521387       -2.63157311994795
H            4.48169284972683        0.11553787835863       -2.11503540527002
H            3.03546191798022        0.99402435381467       -2.62617666411101
H            4.39567357717097       -2.14313150799978       -1.09856807760360
H            5.79920426263776       -5.93025996632782        1.32157957200282
H            7.19397283660674       -7.24240249281163       -0.42770061092427
H            7.33502995258799       -6.04349176673588       -2.69914332676998
H            4.66690872494749       -4.47819708348620        2.44753468538301
H            3.29936980243334       -2.83151569524258        3.62601262143952
H            1.54343957108919       -1.08666970703586        3.38898656372286
H            1.56714428634067        1.23016821867822        3.41388126377378
H            3.38897500553076        2.91323278524078        3.70013357256488
H            4.76865018306393        4.57499585291150        2.53946295410787
H            5.49493157198579        3.89014899720902       -2.06504016484607
H            6.97531037219674        5.91513306997304       -2.72946908873001
H            7.53145081702562        7.44324972998554       -0.73793237607043
H            4.37336759620491        2.36070195398727       -1.07239287607243
