57
 energy: -12.032280248717 gnorm: 0.000728843041 xtb: 6.5.0 (97a52f5)
C            0.91677609840191        0.00668959439678       -0.35407278659858
Si           2.78914875613864        0.02075376284172       -0.43337069431037
C            3.34039031592589        0.03016938280753       -2.22779391585801
C            3.49004835965353       -1.42513411563293        0.48181241972985
C            4.28352261414703       -2.32328637270189       -0.19330917278867
C            4.85706496278963       -3.41320910147823        0.45593742019460
C            5.68677493433057       -4.31022323014845       -0.24920862124217
C            6.42649972594898       -5.05628688352091       -0.87276482905416
C            7.29478871112087       -5.89275272398995       -1.60873809030845
C            8.27019356624959       -5.34704864459615       -2.43782531225198
C            9.12173810503588       -6.16099927755555       -3.15540531714474
C            9.01312373887960       -7.53337931857320       -3.05693647225565
C            8.05054838284660       -8.09065563932654       -2.23959004521106
C            7.19824598140786       -7.27806958867893       -1.52114747922466
C            4.59687333805843       -3.58006550440364        1.81213337498926
C            3.80491367708102       -2.68303631369879        2.49202354036127
C            3.24708373566107       -1.57250534365297        1.84940458620795
C            2.38771388921412       -0.66468489833830        2.62039044664497
C            2.37808252560095        0.68316138816027        2.62398068986922
C            3.22420863833719        1.60760841008308        1.85794907521730
C            3.76804266240969        2.72117492836975        2.50734564968540
C            4.54631614325117        3.63375847590432        1.83232322988995
C            4.80607872024370        3.47997930152892        0.47449732575003
C            5.62353289428370        4.39183435982605       -0.22587290518364
C            6.35410506648677        5.15062379856154       -0.84478061180314
C            7.21394793350757        5.99921680565343       -1.57674193399333
C            7.10750993735605        7.38302242197397       -1.47767769840175
C            7.95220676793492        8.20757921783377       -2.19142486593024
C            8.91684892239585        7.66394474546722       -3.01549395964076
C            9.03505620499008        6.29323944232765       -3.12556156961460
C            8.19116693633266        5.46729859603207       -2.41264173553734
C            4.24588566456459        2.38713769460034       -0.18142609142254
C            3.46658625947211        1.47316517328002        0.48892752396638
H            0.53124680112696       -0.87530537593850       -0.85738700775928
H            0.51947838712007        0.89240069776950       -0.84148434060590
H            0.57886351917292       -0.00484197453344        0.67762714572008
H            2.96643499378958       -0.85404325080048       -2.73605114430606
H            4.42470878955534        0.04007785445205       -2.29235932304042
H            2.95053025987771        0.90994667270591       -2.73178776780264
H            4.47268401408158       -2.18506318095462       -1.24306973307640
H            8.35218256802231       -4.27588132445841       -2.51164406531598
H            9.87323985253034       -5.72462254653173       -3.79316047668354
H            9.67934371806625       -8.16898502964688       -3.61735945109370
H            7.96508124130500       -9.16235146090190       -2.16207632741141
H            6.44651088715746       -7.70921888281284       -0.88205845532094
H            5.02790443885633       -4.42269609639886        2.32551590088964
H            3.61247901663112       -2.82547754443156        3.54175030125956
H            1.72920284279018       -1.15999766833472        3.31754236819607
H            1.71250003304496        1.16526303954477        3.32368846843793
H            3.57604734927826        2.85330539150429        3.55850323606383
H            4.96774369839918        4.47796565387079        2.35106743794644
H            6.35421054837153        7.80340714901342       -0.83328104322973
H            7.85914997553838        9.27796226802668       -2.10499932752212
H            9.57730615948541        8.30890601395817       -3.57204278267190
H            9.78825233254974        5.86753088706051       -3.76851035167269
H            8.28075102999586        4.39738640535866       -2.49536511670767
H            4.43467337318245        2.25912175917907       -1.23254931901915
