97
 energy: -20.263843925271 gnorm: 0.000635935974 xtb: 6.5.0 (97a52f5)
C            0.56840479764065        0.09577382187580       -0.59555796319988
Si           2.43523517575975       -0.03447736636314       -0.69099950698077
C            2.96164170787209       -0.09288045375205       -2.49180327490327
C            3.02633803921132       -1.51926967381211        0.23930133134252
C            3.70364699821882       -2.51021467108166       -0.43673205237694
C            4.17290482706461       -3.62257713769371        0.22910308538602
C            3.96570653381121       -3.76715316958505        1.60022702262360
C            4.45471404884066       -4.96561528456874        2.31749130442094
C            5.68761305993945       -5.53761848849014        1.99872977224160
C            6.13756829218913       -6.65766453107976        2.65397959958046
C            5.37408051786965       -7.25695270905586        3.65469964294742
N            5.84366750221926       -8.42949390405576        4.33038345411165
C            7.25156868743911       -8.61611134561172        4.55080102953877
C            8.06468518282250       -7.54357734816559        4.91044899116394
C            9.41446704782196       -7.72247810648096        5.11607412155055
C            9.97766486830292       -8.97535270276956        4.96721927929041
C            9.18440510457539      -10.04992813482796        4.61378001083694
C            7.83422666728013       -9.87353210461518        4.40832033331641
C            4.91882115022992       -9.43780749174679        4.76797773814812
C            3.79885666891548       -9.75958502504252        4.00444762656566
C            2.92193638753451      -10.73692154040831        4.41935622646992
C            3.14651039586341      -11.41212218792646        5.60359024540711
C            4.25336985360623      -11.10603468304989        6.37164197770078
C            5.13165870531357      -10.12923108913907        5.95848806568765
C            4.14368745714694       -6.68594787628801        3.97713025503889
C            3.69398572529812       -5.56393675187127        3.32386472211878
C            3.28012165244783       -2.75847551582471        2.27072753447567
C            2.81083973984302       -1.61652004644815        1.61685941506364
C            2.04210731806671       -0.63190256305591        2.38941399931619
C            2.10997330181356        0.71460610191842        2.36250864346988
C            2.97889062777533        1.58217682207325        1.55842236025515
C            3.53206907514486        2.71406382540081        2.16215197491651
C            4.33534071197155        3.61082049691644        1.46336307061304
C            4.88994542719870        4.81319777535343        2.12321840659465
C            5.06169912833650        6.00346383706884        1.41366683296795
C            5.56282438427648        7.12655084100647        2.02491268866300
C            5.90985185341506        7.11392979377856        3.37485759292192
N            6.41389273349208        8.29303483584020        4.01094872269555
C            6.01493273437447        9.59249007060709        3.54176403867808
C            4.69643243495094        9.84389080999180        3.16829610024237
C            4.31899198335032       11.08904564494669        2.71706800382031
C            5.24988390926960       12.10647119186529        2.63235132715304
C            6.56052062903747       11.87448269116277        3.00283755145966
C            6.94020713301991       10.63028517464243        3.45483150106220
C            7.31983944348890        8.19882434652015        5.12235097855603
C            8.31764281926997        7.22710992197440        5.15467592896520
C            9.18693447356169        7.14768586611280        6.21994643994486
C            9.07856732519038        8.03790966639393        7.27106855258750
C            8.09736848478353        9.01030840630971        7.25200447287041
C            7.22681258108161        9.09124057880502        6.18818582502370
C            5.74076402168251        5.92674326485902        4.08601820379880
C            5.24439337394181        4.80089002801258        3.47395641293712
C            4.58392828138175        3.35418337300583        0.11533301579440
C            4.02695024309056        2.25550518691902       -0.50431698423282
C            3.22257054156456        1.38434888098358        0.19684445097892
H            0.11234713484935       -0.75420893738694       -1.09519426962382
H            0.23716801931029        1.00948133879253       -1.08090913071312
H            0.23940865350552        0.11074172412229        0.43906890381540
H            2.50140935179395       -0.94330847751632       -2.98678672726560
H            4.04142400064134       -0.18255851961557       -2.56987150761007
H            2.64652910704796        0.81455187131080       -2.99918202603028
H            3.86184733747406       -2.41253529203176       -1.49728548151735
H            4.68727072809737       -4.39837682101501       -0.31127647256811
H            6.29384454769066       -5.08271343548851        1.23447953720953
H            7.08554861616809       -7.09437580056272        2.39291068337201
H            7.61890321464032       -6.57180100794093        5.03299214273140
H           10.03237060549758       -6.88408211462603        5.39386816797101
H           11.03459192076095       -9.11412866543164        5.12690867195578
H            9.62295962984154      -11.02784832588812        4.49837728695848
H            7.21224022549318      -10.70558501256563        4.12779390990344
H            3.63581739875653       -9.24031691643668        3.07620298076171
H            2.06015747665028      -10.97727049609106        3.81811474513394
H            2.45987731752353      -12.17740356771459        5.92718399551230
H            4.43015133156645      -11.63352919946545        7.29488794800780
H            5.99384913999419       -9.88504189890175        6.55424903786904
H            3.55140095998992       -7.13471120314498        4.75523338839991
H            2.73535310478567       -5.14385812536424        3.57494246723143
H            3.11768181957147       -2.85231910855724        3.32933851383581
H            1.37621180411189       -1.06847972357287        3.11844812591972
H            1.49233262301244        1.24511952511611        3.07124494784567
H            3.31485322207458        2.90333241286321        3.19772445991073
H            4.77805593280048        6.04175062590286        0.37620366031190
H            5.69782864915667        8.03382265833654        1.46266449051541
H            3.97372347645231        9.05028914486864        3.24528770085585
H            3.29577985420352       11.26983565336799        2.43031816934944
H            4.95365268200835       13.08027260591171        2.27749954231728
H            7.28710326197612       12.66803390638317        2.93761685379545
H            7.96024505048700       10.44209982523009        3.74123839481810
H            8.40640714413853        6.54489949246617        4.32724006902177
H            9.95453149330822        6.39101625409367        6.23268808103963
H            9.75945981553625        7.97489244823615        8.10433098319349
H            8.01292479759578        9.70655757224264        8.07058152616510
H            6.45774443529308        9.84369621211572        6.16977577790743
H            5.99446585862655        5.90717805649317        5.13136087733710
H            5.13618229484162        3.88989679014416        4.03661566770834
H            5.22205033503121        4.01866043825488       -0.44086103624776
H            4.21703385802527        2.07452274154796       -1.54853515667030
