53
 energy: -10.707819417311 gnorm: 0.000290433455 xtb: 6.5.0 (97a52f5)
C            0.84026534450313       -0.07656313572763       -0.56509765985835
Si           2.71385014843438       -0.07327480260602       -0.52966161811865
C            3.36842041570807       -0.09099490753146       -2.28851174813785
C            3.34496882874221       -1.51884037187844        0.43879993572194
C            4.14722035660553       -2.45125524219643       -0.18228900535388
C            4.65469983936620       -3.52358328105514        0.52117174036290
C            4.36082056593902       -3.68429711661277        1.87271278479648
C            4.88444793603227       -4.84517363823984        2.63244475269391
C            6.21014337144269       -5.25222076820799        2.49390126821983
C            6.69177794705951       -6.33700796835888        3.19515028944026
C            5.86013285022632       -7.03603990152923        4.04726799458482
C            4.54427718081434       -6.64630665341535        4.19793636759885
C            4.06020341259214       -5.56154030427363        3.49848868050542
C            3.55203489962598       -2.73578193961434        2.48863994214854
C            3.04049370184768       -1.63641167551442        1.79671455631445
C            2.14384550045320       -0.71391941964776        2.50719326442033
C            2.14185321849777        0.63163089232843        2.49337476869336
C            3.03399845263338        1.54228612640061        1.76234987000145
C            3.53653796290634        2.66208862342373        2.42772840314480
C            4.33383097400974        3.60451769794704        1.78790258559467
C            4.84540459995647        4.78904890361308        2.51881974339242
C            4.79129912252561        6.05839509135756        1.94594849679365
C            5.26286023418190        7.16037543426703        2.62666153475876
C            5.79766299529577        7.01627997308625        3.89126730497631
C            5.85942091757200        5.76633036817962        4.47448130204044
C            5.38775678626291        4.66261920207540        3.79632337176673
C            4.62772832597640        3.41498783029703        0.44015023553407
C            4.13131377846841        2.32064498543764       -0.23668423824370
C            3.33831936581822        1.39581358717818        0.40712768401756
H            0.48180918407070       -0.96758921670451       -1.07270271835617
H            0.47949642419877        0.79991736577180       -1.09588264285006
H            0.43915217539238       -0.06390553833634        0.44383726187368
H            3.01531680413178       -0.97762588705390       -2.80755826161374
H            4.45475483731278       -0.09261762975371       -2.28824119573938
H            3.01796304475714        0.78652446542357       -2.82452325721546
H            4.37463460944861       -2.33908253461588       -1.22869846232173
H            5.27111185079055       -4.25421860371186        0.02630279441915
H            6.86049067764879       -4.70160668468297        1.83583167543902
H            7.71961235941131       -6.64016270931985        3.07833504840550
H            6.23735299646752       -7.88524099242296        4.59380646085809
H            3.89398027157938       -7.19267876578792        4.86180973312415
H            3.03135668657558       -5.26381524667064        3.60738757209121
H            3.31901121409470       -2.84715290848008        3.53241757055304
H            1.43734808822981       -1.19818729254481        3.16389505585378
H            1.43416223754536        1.12689671504770        3.14051956009749
H            3.28957523750858        2.80529622150753        3.46439075554771
H            4.36491287300059        6.17118413075687        0.96384040885928
H            5.21218928704225        8.13626588959973        2.17158604712060
H            6.16604790843815        7.87878391908994        4.42276684654961
H            6.27806931030903        5.65342562245633        5.46138439900700
H            5.44338978152593        3.68646014096589        4.24696174944741
H            5.25198189306824        4.12986114185100       -0.06776042976420
H            4.36222121395521        2.18371080842894       -1.27936857918905
