47
 energy: -9.284346651105 gnorm: 0.000991000686 xtb: 6.5.0 (97a52f5)
C            0.76562211676715       -0.01153653894804       -0.54514705061725
Si           2.63683854817821        0.06128459168922       -0.48188597167027
C            3.31901963274619        0.05686073206845       -2.23026593660785
C            3.30771721458829       -1.35281843444825        0.50649536662407
C            4.15951389429616       -2.25628987467026       -0.09163794853559
C            4.70588463646581       -3.29688742477408        0.63050122038896
C            4.40283340393792       -3.45463947363608        1.98212156527685
C            4.95475810609607       -4.54954829298412        2.77847121034695
C            5.89871495543363       -5.45603685020764        2.38859752548778
C            6.23130056706418       -6.40674248771515        3.39331580999207
C            5.54799393743062       -6.23228994165230        4.54678555163574
S            4.47421670010028       -4.88461632539130        4.42634464638782
C            3.54026086836691       -2.53621328804491        2.57026773094111
C            2.98835665464333       -1.46970421833386        1.86086440201331
C            2.04381840949614       -0.58191241825590        2.55169077236619
C            1.99071743955153        0.76225935012322        2.52900956545974
C            2.86154086856570        1.69793436518803        1.80529817055856
C            3.32308466942672        2.83134504168434        2.47435296520162
C            4.10721254731428        3.79581161958724        1.85136688725635
C            4.56696558199049        4.96022052604059        2.60647316933679
C            5.24907558213377        6.03931447570700        2.12106661180087
C            5.55763345111493        7.01551984286952        3.10885182705864
C            5.11560030535777        6.68961552485666        4.34459965011045
S            4.30242565172157        5.16554166189657        4.32300592461949
C            4.42715142274529        3.61220944745813        0.50700689040925
C            3.96925964182741        2.50449071460861       -0.17574269031603
C            3.19193896971092        1.55777153960760        0.45568943520757
H            0.44849873021263       -0.92506736308588       -1.03998899622121
H            0.38193049454478        0.84082173760247       -1.09865598250819
H            0.34803832345825        0.00625705528239        0.45687644803553
H            3.00905560543560       -0.84686810458597       -2.74746522379654
H            4.40460880440282        0.09814620428998       -2.21449065115127
H            2.94247821502995        0.91574339041139       -2.77855746958396
H            4.39710663505764       -2.14487480558107       -1.13586384034872
H            5.36434259978349       -3.99685615834505        0.14748215646982
H            6.35878742035662       -5.45128949169273        1.41313491590496
H            6.95966428159395       -7.19127885522577        3.24598711364487
H            5.64623879510768       -6.83855230089136        5.42797296292706
H            3.29216324726394       -2.65247191768919        3.60937166614703
H            1.34812708102629       -1.08968175645449        3.20195994356098
H            1.25641036374418        1.23510607835166        3.16295998877325
H            3.06603373942458        2.96471089947922        3.50918322897391
H            5.52496233621787        6.14916082810932        1.08401447401945
H            6.09354173304382        7.92829842272273        2.88995277062290
H            5.24338863463586        7.28420785241449        5.22967779340595
H            5.03717084973970        4.33882681013661        0.00045479908807
H            4.21953633284668        2.37320761042765       -1.21444339869634
