52
 energy: -10.074252219197 gnorm: 0.000627722290 xtb: 6.5.0 (97a52f5)
C            1.18427923133543        0.07309906756794       -2.28791741580181
Si           2.07138245139839        0.17517368955289       -0.63633457486858
C            0.94157715073624        0.33750201870355        0.85422594949531
C            3.38006971006814        1.47795064163989       -0.64087925426132
C            3.35131524371161        2.84657873008252       -0.76459931855675
C            4.53885629376425        3.55604884979421       -0.73326329902041
C            5.74577914462666        2.89506353670470       -0.57771476101553
C            5.78116283949637        1.52165251911453       -0.45100466715299
C            4.59116235864525        0.79605127525950       -0.48032080106394
C            4.49162882314718       -0.67544686573493       -0.36191137819821
Se           5.85515018301134       -2.00011925389590       -0.14556953247964
C            4.45399690143798       -3.29804001093868       -0.17768857249628
C            4.56710038997919       -4.66314460250234       -0.07610749379560
C            3.40667661429711       -5.44226713372205       -0.12955585446977
C            3.35137242562792       -6.89999774030959       -0.04389414242758
C            2.12060076248040       -7.45134045485953       -0.12679900394453
Se           0.75686776724153       -6.12579724446249       -0.33562346752750
C            2.15667651233411       -4.82702978650035       -0.28534967722622
C            2.04303442520179       -3.46158221795808       -0.38213885992737
C            3.20345923960160       -2.68254552477739       -0.32818566264075
C            3.25904374803221       -1.22543351404335       -0.42474669223474
C            2.02509590547026       -8.92582542259192       -0.04988261072903
C            0.83933254481185       -9.65528280966949       -0.12072058181533
C            0.87988942864893      -11.03193417892243       -0.03792512158957
C            2.08747713737589      -11.69231374789207        0.11564615470814
C            3.27086120280943      -10.97893353117969        0.18736412005188
C            3.23704457059007       -9.60736171691884        0.10521784053346
Si           4.53947094199083       -8.29996391502887        0.16460628702628
C            5.71110037758971       -8.42145995606286       -1.29714980068936
C            5.37626298314036       -8.23410579545348        1.84393836390929
H            0.59339888444911        0.96994822045009       -2.44998365435401
H            0.52576014039549       -0.79056332519548       -2.30441332132729
H            1.90922366234221       -0.02166927582615       -3.09115883125221
H            0.34475927315903        1.24151856098300        0.77441801453879
H            1.53544608255297        0.38602107569163        1.76239595805916
H            0.27753925149111       -0.51999400842744        0.91322334416222
H            2.40759807172816        3.34995818493113       -0.88629341960094
H            4.52380827863117        4.62929542455119       -0.83110229644842
H            6.66512722221078        3.45721425189916       -0.55577141732384
H            6.71438375216791        0.99991434065284       -0.33077696579509
H            5.53069473813650       -5.12417489894356        0.03990835233223
H            1.07955782873703       -3.00099494364799       -0.50091275998337
H           -0.09434553718243       -9.13454037957973       -0.24161893652284
H           -0.03587192696839      -11.59753091831209       -0.09355229743039
H            2.10655945974115      -12.76795280345595        0.17998115167867
H            4.21542366031191      -11.48109219395082        0.30774301157789
H            5.15410347552303       -8.33819266613024       -2.22602484513547
H            6.22947460456726       -9.37593846390478       -1.28181881347205
H            6.44427924785926       -7.62127166089930       -1.25324621825781
H            4.62655284594351       -8.18715760727826        2.62859913312522
H            6.00984638074324       -7.35442608980147        1.91075905253034
H            5.98642329484195       -9.12044572867263        1.99192958707689
