46
 energy: -8.822456131861 gnorm: 0.000555564707 xtb: 6.5.0 (97a52f5)
C            0.66312970283787       -0.28883784462748        0.12572796688412
Si           2.52468609019447       -0.20780014230105       -0.10517975310369
C            3.09936729185314       -0.39756770024543       -1.88202545066585
C            3.39591725753218       -1.39011060131047        1.00662335487120
C            3.37986544323063       -2.76227126410280        1.09385026903013
C            4.15883135635499       -3.39011389755649        2.04840664930480
C            4.94604453588687       -2.64175969688712        2.90615779897270
C            4.96368177495504       -1.26415402583612        2.82138386643296
C            4.18232397751300       -0.61682649195413        1.86382516128890
C            4.10537115627671        0.86537664921525        1.66709505187169
C            4.82792675468828        1.81311665532619        2.39571346505857
C            4.66408440142023        3.14641921204081        2.10746759756812
C            3.79146960786373        3.58933743220245        1.10615034025840
C            3.07086228464670        2.64124165864698        0.37564531821328
C            3.23687070769960        1.30727769320565        0.66142087029539
C            3.72105057270880        5.07182717751768        0.90811892278127
C            2.90002338294977        5.72545096967183       -0.01107216996468
C            2.92697487742592        7.10274011783141       -0.09904727899010
C            3.76252363772327        7.84464829879667        0.71766189218715
C            4.58064097053780        7.21085074480508        1.63454518231317
C            4.55521708471348        5.83913184129104        1.72481642265396
Si           5.45206206903867        4.65320168121009        2.81202533281806
C            7.29895682921930        4.67261380078892        2.47527679828954
C            4.98258948401996        4.88484868711266        4.61481599845060
H            0.28758376349584       -1.25058469070296       -0.21234427859168
H            0.18246125724688        0.49856207112003       -0.44788030839598
H            0.41366877222052       -0.16234894961903        1.17541822102384
H            2.77655148223148       -1.35596678882096       -2.27840380749553
H            4.18350741268403       -0.34498742247339       -1.92629180140927
H            2.68312692225144        0.39674965200809       -2.49504326155057
H            2.76274374123802       -3.33126232913055        0.41954830094651
H            4.15257134432704       -4.46536724377120        2.12412281629235
H            5.55047526637011       -3.13876696405334        3.64766304738425
H            5.57556641639041       -0.68596737883967        3.49091308000241
H            5.50856253066306        1.51118956521153        3.17009230092186
H            2.39759022762114        2.94295187103651       -0.40530135144568
H            2.24790333181760        5.15250450616722       -0.64599391168968
H            2.29120229329854        7.60503658610993       -0.80999830394599
H            3.77514664004717        8.91965487159909        0.63987915243667
H            5.23410048852166        7.77465432221467        2.27829527657175
H            7.78479032200963        3.86979536859108        3.02256660366945
H            7.72636435724676        5.62126069284580        2.78717661294621
H            7.48236687441212        4.53537239500990        1.41340772377042
H            3.90210741514452        4.85306425090223        4.72201097419345
H            5.34434849641148        5.84422855015642        4.97354400890434
H            5.41975939305950        4.09434610959432        5.21824529863881
