40
 energy: -8.563691554219 gnorm: 0.000646180467 xtb: 6.5.0 (97a52f5)
C            1.28084265594745       -0.06843158227021        0.66060449084945
C            2.57728326163699       -0.03895200915015       -0.08155832239287
O            3.08758283623360       -1.07253668968163       -0.45502435869959
C            3.22387209157226        1.26087493408263       -0.34850146028546
C            4.39450917093918        1.29158581107011       -1.09768029583857
C            5.01919421215783        2.48026780872690       -1.38415637201727
C            4.48981832196514        3.69119961181550       -0.93644560519085
C            5.15002778167271        4.96378920602319       -1.26761796479843
C            5.48368137066039        5.85874621782804       -0.28021944156199
C            6.21305641347098        7.02165186015060       -0.55703937514134
C            6.62813698614342        7.29694538265551       -1.82461281167650
C            6.27987008338213        6.41124705172289       -2.85810596496606
N            6.58762184631164        6.51457675861659       -4.16303080747951
C            6.00692586500318        5.48114529634983       -4.75485019724341
C            5.29424183657128        4.69838425475354       -3.84320497234399
C            4.43420913337133        3.55668407096912       -4.17822797781217
C            4.88102831279612        2.54835898526723       -5.03317460250039
C            4.07197679146491        1.47713204670080       -5.33783499662800
C            2.80068656840832        1.39358526348056       -4.80524444529643
C            2.33599630380232        2.39000296138254       -3.97034264943025
C            3.14113449117875        3.46282546968781       -3.66301680651503
N            5.50450345818078        5.27343848629232       -2.59434510336924
C            3.32650011111918        3.65790724824074       -0.16528857273007
C            2.70380845226167        2.46691793567575        0.11954335796945
H            0.88909465347068       -1.08460415146714        0.68901298537759
H            0.53559379662760        0.56251120993631        0.17686068551569
H            1.41092434915980        0.26843906060187        1.68875535199384
H            4.79939181263656        0.36175744379469       -1.45817183979318
H            5.92103116080469        2.49411308289701       -1.97110030472043
H            5.21051545565636        5.63406550571205        0.73608866165483
H            6.46373266875646        7.69419229751476        0.24680358222795
H            7.20327477965451        8.17638733695805       -2.05170902343646
H            6.04053072978541        5.31076838769070       -5.82103908545957
H            5.87507816346623        2.61200571166570       -5.44067190424306
H            4.43237059532363        0.70044803034149       -5.99216054547344
H            2.17081059570834        0.55188546808472       -5.04189139912643
H            1.34343936069874        2.32600913986860       -3.55578286315618
H            2.78344331152839        4.24238228913783       -3.01327175846099
H            2.90923343734062        4.58464908586768        0.18883361294232
H            1.80284677313217        2.46514372100300        0.70729909925760
