29
 energy: -5.593861977457 gnorm: 0.000403191242 xtb: 6.5.0 (97a52f5)
C            0.72832767880045        0.04962964102187       -0.22814943855573
Si           2.60229717100671        0.04858865250919       -0.33675633801957
C            3.28557193284195        0.05025661650679       -2.08532973863072
C            3.32908220702241       -1.31347480865697        0.66786437302508
C            3.25345343797420       -2.68226904939764        0.56170778807078
C            3.91049002709546       -3.47110083262083        1.48777266572343
C            4.63604552133743       -2.88540762057029        2.51028416286453
C            4.71355411092538       -1.51147197660434        2.61876659784795
C            4.05626832996517       -0.70263555168527        1.69166018244761
C            4.05655926424664        0.79708540418108        1.69245480336938
C            4.71444940898089        1.60483665868025        2.62009116251436
C            4.63755143551401        2.97891248228270        2.51279369731203
C            3.91201449123361        3.56583395214092        1.49096865728529
C            3.25450546108618        2.77808278703669        0.56432818866966
C            3.32949656719533        1.40917922478045        0.66936738471914
H            0.32442074178183       -0.82585752468446       -0.72867196822608
H            0.32704575293353        0.94230621668429       -0.69966539265838
H            0.42066868166913        0.03309026390504        0.81363349604503
H            2.94205994161910       -0.82980354089267       -2.62164733793239
H            4.37148818805826        0.04315373131196       -2.05658664128738
H            2.95352092121930        0.93844304228433       -2.61547710216346
H            2.68435319559755       -3.12323924408998       -0.23882098494445
H            3.85676251199562       -4.54503380540851        1.41269937612146
H            5.14504095965991       -3.50739182751810        3.22867471246356
H            5.27848286809195       -1.06046692511514        3.41522861409785
H            5.27947374768286        1.15290324703988        3.41595969309637
H            5.14705309662448        3.60005672880792        3.23155201067206
H            3.85873663142621        4.63985497853540        1.41682247303886
H            2.68546571641443        3.21991907953541       -0.23576509696631
