52
 energy: -10.170521087475 gnorm: 0.000504024893 xtb: 6.5.0 (97a52f5)
C            1.11306669457066        0.10115414037389       -2.56455515362251
Si           1.87635414725606        0.14293831563404       -0.85023367751397
C            0.64157297866916        0.28074576346639        0.55720324312161
C            3.19904655165040        1.42730982592895       -0.72882630018706
C            3.18648221522576        2.79901672475388       -0.81670509800756
C            4.37480969497750        3.49771532295325       -0.69811522858980
C            5.56635676153020        2.82264810180194       -0.49263534984365
C            5.58452821852844        1.44608614099623       -0.40219968782554
C            4.39368392747086        0.73155564680817       -0.51917289925301
C            4.27289135813344       -0.74409615102304       -0.44253353909409
S            5.48853766529001       -1.98951964025784       -0.18103885415644
C            4.28276753606368       -3.26654714368874       -0.28328850544282
C            4.46200030945068       -4.62913228459685       -0.16923510485701
C            3.34412656472884       -5.46181310677285       -0.28757126895938
C            3.31837032454710       -6.89628973611534       -0.20047438945479
C            2.07475571919549       -7.43417292912097       -0.35910769985727
S            0.85901887471325       -6.18979975490980       -0.62645254169087
C            2.06301605681160       -4.91117159332777       -0.52004354956699
C            1.88386088959388       -3.54835083397940       -0.63314230097857
C            3.00141043799934       -2.71529224004539       -0.51309206303122
C            3.02774612067925       -1.28038533115308       -0.59450945141829
C            1.95618182246072       -8.91007976443612       -0.28335917696464
C            0.77021629682279       -9.62822312787928       -0.42463790328314
C            0.79107625066709      -11.00481152841216       -0.33461986344595
C            1.98013885553346      -11.67642769702646       -0.10463355229983
C            3.16368370661865      -10.97420942621192        0.03753364174752
C            3.14863482479649       -9.60262375048574       -0.05173010685802
Si           4.46931226600667       -8.31654828425069        0.07185268636782
C            5.71230340875879       -8.46365537542061       -1.32728214444029
C            5.22009615927982       -8.26015850163417        1.79153768888922
H            0.53907254904775        1.00659154107174       -2.73929018824563
H            0.45501208904721       -0.75767424104493       -2.65941557838933
H            1.89536177695810        0.02993761273137       -3.31460471107123
H            0.08008790443697        1.20668618646977        0.47212828147770
H            1.16372568806891        0.27172081142661        1.50956616406246
H           -0.05084692115653       -0.55553178950290        0.52719818332533
H            2.25435906645944        3.31286869572541       -0.97783877904996
H            4.37277895397903        4.57322561288292       -0.76755769010392
H            6.48678648660008        3.37639417936776       -0.40372677486959
H            6.50554624870452        0.91341311741518       -0.24288082159721
H            5.43814323217550       -5.04180168020628        0.00652088276585
H            0.90779534502265       -3.13577246386192       -0.80957756990868
H           -0.14889797533883       -9.09834092548279       -0.60311274733322
H           -0.12534181973044      -11.56141728046204       -0.44405087490560
H            1.98427480508607      -12.75196215012266       -0.03564688804139
H            4.09410816929852      -11.48526250726974        0.21657922576158
H            5.19439443322614       -8.46658341144068       -2.28201881802987
H            6.27632535984335       -9.38673439664814       -1.22919138950391
H            6.40133155449857       -7.62434607717829       -1.30354631556198
H            4.43350460764782       -8.15779479918223        2.53359136192284
H            5.89588439403790       -7.41396392671470        1.87585888964581
H            5.77300741406004       -9.17427388996317        1.98790430818936
