104
 energy: -18.950157770913 gnorm: 0.000694436729 xtb: 6.5.0 (97a52f5)
C            0.49259421134715        0.50586722294155       -0.02922410080822
Si           2.23641179574804       -0.16579242876337        0.17704991696569
C            2.60961521979630       -0.95510384189586        1.82036153372315
C            3.82713013339786       -1.57520064702618        1.99901843379128
C            4.13997035311699       -2.14733882902815        3.21639435353675
C            3.22875229888759       -2.10268333377034        4.25236050475659
C            2.00651404784312       -1.48681849877959        4.07146299396154
C            1.69862154423318       -0.91103316335256        2.85415976008463
C            3.48826608175415        1.10805374907253       -0.23663213909441
C            3.69636496703716        2.30047739671528        0.44795622835460
C            3.09594254063650        2.69223241147408        1.59872522616492
C            3.27206678148824        3.91086600586646        2.21304156351347
C            4.08181415062511        4.91392583547357        1.79722214064308
C            4.87804273742407        4.99417354853721        0.72633367224185
C            4.50838194921959        4.94925961173078       -0.54283000370828
C            3.26477910475636        4.91447129504759       -1.02411412753733
C            2.94903010269605        4.58471857936446       -2.28488707259241
C            1.67256160278999        4.35136273236424       -2.81487023021510
C            0.42714804159685        4.53658057228502       -2.23753823236062
C            0.09288941523735        5.27524897356045       -1.13108017206871
C            0.57265278907020        6.51830058589761       -0.62866859181508
N            0.37976727460589        6.98942584114116        0.62808240466635
C            0.83342659186729        8.16084364333541        0.92757634936046
C            1.47952521115004        8.93409564244448        0.04028041701022
C            1.67400511736711        8.51214093564207       -1.18865468455070
C            1.23263907866102        7.30886189772826       -1.55177711027901
C           -1.76165981522646        9.72475906864046       -1.75467945543738
C           -2.95908616902760        9.23515825727203       -1.79478452495698
C            4.02452163946909        0.72238007496027       -1.43711226438635
C            4.90986204343686        1.60885964195875       -2.22805561897452
C            4.67618055394474        1.81515722745761       -3.58786203719274
C            5.48377143396281        2.65380568821534       -4.32346510266357
C            6.54148235582889        3.30217645395888       -3.71754693487847
C            6.79060528004392        3.10737264697325       -2.37344236721538
C            5.98389371261140        2.27052797202067       -1.63463886979999
C            3.64161657536234       -0.63441690073718       -1.92576098225573
C            4.33234813316958       -1.26535716628398       -3.07400365883484
C            3.61578778150890       -1.94087317505931       -4.06094907608885
C            4.26405655323752       -2.53430889506008       -5.12149533610842
C            5.63964422200528       -2.46602041102056       -5.21975107414085
C            6.36682492511380       -1.80028468623808       -4.25326474671946
C            5.72135807892951       -1.20732453052155       -3.19091509510437
C            2.67338028728833       -1.28497720990897       -1.20734213108119
C            2.19984125632550       -2.58110243882688       -1.38369835671993
C            1.40622786891443       -3.27161468558454       -0.52795111186851
C            1.02214479750302       -4.58425779799008       -0.67722189633335
C            1.37462925588379       -5.41958361480403       -1.68268016536465
C            2.18616038559518       -5.22789576183465       -2.72681458775565
C            3.46786043998405       -4.90965091288048       -2.69807112231609
C            4.24346037291509       -4.76341667459007       -1.62572254516534
C            5.48891557560253       -4.27346645544043       -1.65471470249330
C            6.37051951271042       -4.05405304609841       -0.58940918663798
C            6.24449123671132       -4.28593344810970        0.76638324278872
C            5.21392141906700       -4.81507194845311        1.47999476073985
C            3.98652812685425       -5.29854932787502        1.12196128869401
N            3.00661787795367       -5.74212437164196        1.86894143230440
C            2.92012438212511       -5.82497126112708        3.15689176114904
C            3.79505216557175       -5.50368561998184        4.11796509835254
C            3.63344087173004       -5.58729372228692        5.42031175477069
C            2.58728308832396       -5.99609494802508        6.06130280149803
C            6.37460888309733       -8.69162979121156        7.41662343539130
C            6.29741266631699       -7.43681652269320        7.10886570757257
H            0.29979261110137        1.28820784938304        0.69881229660234
H           -0.23420804350031       -0.28962995722038        0.10658964047559
H            0.37710282015040        0.91987602830880       -1.02664479552779
H            4.52284083634309       -1.61596255358663        1.17772361276700
H            5.09072559402414       -2.63554490962416        3.35418102822643
H            3.46877257223152       -2.55585265913708        5.20028464645212
H            1.29302879615183       -1.45534555229669        4.87870186826556
H            0.74896141369449       -0.42609530064034        2.70342638532650
H            2.42361718103795        1.98631519154718        2.05860417236987
H            2.72254668171356        4.09296264137929        3.12323996549926
H            3.87321244526170        0.41036451923187       -8.42534817906344
H            3.78541718750145        4.35216348745413       -2.92604431774601
H            1.66505283531918        3.88969450108215       -3.79241986331998
H           -0.40385610223992        4.04716630333122       -2.72738692104417
H           -6.58410186393456        7.31089464872519       -3.99885953615319
H            6.60742111061761        4.77013351233635        1.07461262362660
H            6.16785759364051       15.97391417948339       -1.32562452235341
H           -2.88071909020591       14.52253944433738       -2.00378953310152
H           -0.92720468643805        9.21209123201299       -1.37282159745302
H           -3.21946656058479        8.27723101688897       -1.44924067850928
H            3.84728150918873        1.31225889424615       -4.05542039658680
H            5.28892408691098        2.80529468590127       -5.37261547589775
H            7.17247384692768        3.95963760164332       -4.29322770213439
H            7.61438936942690        3.61588063820333       -1.89985695388679
H            6.16996077318453        2.12545409760531       -0.58453662697359
H            2.54410492332969       -1.99845989175288       -3.98007533237690
H            3.69631288662577       -3.05603346604788       -5.87448135134475
H            6.14505987042380       -2.93166571660065       -6.05011801971014
H            7.44055143687529       -1.74543384542672       -4.32913622536844
H            6.28642806769129       -0.69341510069464       -2.43270474777144
H            1.07803803932093       -2.74830827962294        0.35539034681323
H            0.37556363079770       -5.00148408400545        0.07865168316433
H           10.20405697354305       -2.93678597790344       -7.37915894097930
H            5.84068274771853       -3.97684225704422       -2.63139494763566
H            7.31672463283172       -3.62092610152443       -0.88328061365137
H            7.09488527226612       -4.00693527619589        1.37102445605503
H           10.68229551583014       -6.79057054202631        8.34930855714286
H            1.40089722128040       -5.27002793592239       -4.31005836685297
H            3.83243753834999      -14.09233418027355       -3.51775638402809
H            8.09956520954639      -12.92720729926447        6.39707934778134
H            5.62506646088587       -9.39951520288713        7.21341581479042
H            5.47525579244138       -6.99799178088319        6.62234818012810
