45
 energy: -6.919134076827 gnorm: 0.000447640988 xtb: 6.5.0 (97a52f5)
C            0.97352279872803       -0.05569285412156       -0.41766975004548
N            2.43507741767581       -0.05060937859626       -0.26820871638205
C            3.10352317950267        1.17429350080328       -0.18880327537341
C            4.47576823667515        1.18986874550012       -0.15021521498098
C            5.19815948636424       -0.04139898627527       -0.16935470481069
C            6.68132812068887       -0.02970665940195       -0.14876078023336
C            7.39123673364482        0.42120118775203        0.98092810782194
C            8.76471469526320        0.44350390298752        0.98903792746884
C            9.47511407953735        0.02346802032670       -0.12147800979491
C            8.80307288626718       -0.42156243612622       -1.24613692443567
C            7.42976171363636       -0.44992860446399       -1.26554926023198
C            4.48656156834581       -1.27960369929164       -0.17956663425163
C            3.11361900205245       -1.27099741879728       -0.20307518322303
C            2.31311910996645       -2.54322138284315       -0.14474856339116
C            3.10530338417853       -3.76048655016018        0.35594239129848
C            4.46435260655236       -3.83951553176876       -0.34102699876384
C            5.27960417045939       -2.56262651977978       -0.08721724836228
C            5.26050821567838        2.47947548730047       -0.11475673388336
C            4.44099278192461        3.72492613767809       -0.47992123043303
C            3.08744348709235        3.69783593887997        0.23253273217724
C            2.29338545600075        2.44246653901200       -0.16176895230190
H            0.63594312402446        0.81187250632259       -0.97740513105787
H            0.49977452000889       -0.05314827747852        0.56129390185494
H            0.64186806345959       -0.93076063588463       -0.96988238779230
H            6.83947552399130        0.73187347311873        1.85054912672817
H            9.29155177153802        0.78809391124332        1.86321910842016
H           10.55218855230241        0.04477707400799       -0.11126135672514
H            9.35956658909493       -0.74259847739287       -2.11083756075772
H            6.90709385622295       -0.77314373262756       -2.14870619248427
H            1.91850335439884       -2.75436212912937       -1.14464941947153
H            1.44152370043469       -2.38452861702928        0.50088755849672
H            2.53588354513214       -4.68767291828666        0.20515044175682
H            3.25609798493461       -3.67757463635157        1.43891191444626
H            4.31206392310093       -3.96709911940868       -1.41951402627530
H            5.01849818160486       -4.72928572688740       -0.01249944462612
H            6.11717865598683       -2.51680179701872       -0.79142025124308
H            5.73682576333990       -2.61177235199898        0.90746045192122
H            6.12266661742253        2.38754808475525       -0.78630999535678
H            5.67959725218295        2.60460110347646        0.88946195533117
H            4.28135588854674        3.75201619673223       -1.56441712841152
H            4.99229679804171        4.64333853005583       -0.23678161358934
H            2.51441212162934        4.60905463194937        0.01366609397876
H            3.24798650126139        3.70256870846970        1.31727370946092
H            1.85395331869311        2.59573142094446       -1.15348577606752
H            1.45153526241324        2.30775333980395        0.52741304359496
