32
 energy: -4.120011154127 gnorm: 0.000463759158 xtb: 6.5.0 (97a52f5)
C            0.98066351582965        0.06966116523992        0.07059819964209
N            2.44969340043711        0.00527042523740        0.07297589680535
C            3.06778737518304       -1.20096590527036        0.07411732668494
C            4.45114630293524       -1.28587727249612        0.07635345974340
C            5.15203261933430       -2.53429455239898        0.07763468182885
C            6.50008742174435       -2.57841749836994        0.07949162808095
C            7.28128284564376       -1.37860063844742        0.08020857456642
C            8.66731598083362       -1.38435526828952        0.08124170625921
N            9.36279842689479       -0.22098514270693        0.08111109311466
C           10.83291528660159       -0.25221480754921        0.07988005266689
C            8.74428334779660        0.98444348394822        0.08073090219229
C            7.36107401333256        1.07030061106640        0.07980358922464
C            6.66046777771734        2.31886753785944        0.07896745632868
C            5.31242508420092        2.36299738094849        0.07721538100987
C            4.53149468823156        1.16300719699365        0.07611810884841
C            3.14555111871768        1.16779289341477        0.07391072253458
C            5.19660848412347       -0.08455899790406        0.07730460396946
C            6.61588354385794       -0.13109414077605        0.07925313818828
H            0.54968319332591       -0.92988729624269        0.06976461286034
H            0.63787021751806        0.59677155654325       -0.81864706441403
H            0.63494818269553        0.59655555212569        0.95884427153064
H            2.47217959823721       -2.09708865401431        0.07319090687096
H            4.58129917493773       -3.44900364984999        0.07700353643651
H            7.00962188207752       -3.52851327380924        0.08036359322918
H            9.20337278067662       -2.31742033589622        0.08167312228397
H           11.19796393002178       -1.27765669497336        0.07925732140483
H           11.21164067065274        0.25101248822116        0.96839526731085
H           11.21005060436710        0.25135968389314       -0.80913122654064
H            9.34430969819255        1.87795005489731        0.08089825544575
H            7.23133962354059        3.23348175364229        0.07974711806505
H            4.80276088262135        3.31300706892194        0.07656400744550
H            2.60484832771978        2.09847527604131        0.07297975638212
