32
 energy: -3.728605501666 gnorm: 0.000320336759 xtb: 6.5.0 (97a52f5)
C           -2.36638453901399        0.03268296464253       -0.17955568905330
N           -0.90287350429761        0.03536300860769       -0.05933831153294
C           -0.21566834227890       -1.13336541350073       -0.04731721279900
C            1.14658423677897       -1.13164971920909        0.06945686977840
C            1.84704985043363        0.06928488321660        0.18459802547204
C            3.29554237430160        0.05014171880571        0.30492430413609
C            4.05108637517685        1.06925327291072        0.74396224445986
C            5.49999508098075        1.04574844229116        0.86002037227442
C            6.28872468395674        0.09656283105783        0.20882195087310
C            7.64864358785915        0.10848126766052        0.35372769791795
N            8.24820143112337        1.04565471535983        1.12877581711137
C            9.70710771406733        1.04301333058995        1.29761586659959
C            7.51090840251991        1.98642125750737        1.76780891849748
C            6.14955251588351        2.00181888908832        1.64118635923585
C            1.11066628049848        1.25413476871276        0.16331713904705
C           -0.25127376990844        1.21965084756463        0.04271487886833
H           -2.74137888666360       -0.98152130658146       -0.30220268018483
H           -2.66463083652308        0.62018637437562       -1.04627330057908
H           -2.80785340054698        0.46231638929845        0.71817139232823
H           -0.75936980238293       -2.06022477954902       -0.12910700965420
H            1.68738349318339       -2.06409251449153        0.08270400419433
H            3.78048041582077       -0.87622284991370        0.05401023507290
H            3.55979523846963        1.96557686950338        1.07808501173387
H            5.83053493878949       -0.63742372902835       -0.43197420612431
H            8.26061462459826       -0.62383040258085       -0.14692176885388
H           10.17102501309414        0.32021097716346        0.62931140091381
H            9.95488109404359        0.78010137135937        2.32473319658460
H           10.10645923883810        2.03005506257969        1.07058078177603
H            8.01798895278783        2.71633543425794        2.37774088847240
H            5.56920056531069        2.75098105082660        2.15493343055430
H            1.61553201502814        2.20378299548981        0.21482266918214
H           -0.82763504192805        2.13031199198516        0.02180672369335
