36
 energy: -6.113978193260 gnorm: 0.000804437349 xtb: 6.5.0 (97a52f5)
C           -2.37558251045037       -0.01378765941732       -0.20302320300612
N           -0.91593752316018        0.01060657476001       -0.06755435433150
C           -0.18096445956069       -1.07087161331430       -0.43050292389567
C            1.18117810742676       -1.05117045686933       -0.31760898536242
C            1.83577307834490        0.08188898561479        0.16970356650734
C            3.28222344623884        0.08112861201763        0.27575763587682
C            4.02540908801445        1.06793949521044        0.80361912248877
C            5.47358847688804        1.07674791338140        0.89548794165070
C            6.27784254670414        0.08427388621992        0.28429124378694
C            7.63218029158088        0.11833087024715        0.37503955975350
C            8.28605739030751        1.15103983214330        1.08661263761765
C            9.68228230129652        1.21116439712394        1.19665266366991
C           10.30395590844333        2.23037740993563        1.89529430745870
O           11.67064328786711        2.31467588014112        2.01871305931832
C            9.50042580771881        3.22505204885536        2.50607274139645
C            8.14874727715101        3.19102567242014        2.41523804911475
C            7.49820070821492        2.15417532630872        1.70340168488920
C            6.10086305690556        2.09168343277100        1.58917779824170
C            1.05202771890803        1.18151895779907        0.52573640253691
C           -0.30853676045904        1.13000420630296        0.39996477430727
H           -2.73293791524983       -1.03530204968141       -0.31128640855095
H           -2.67287880169852        0.55800279773505       -1.07933552952599
H           -2.83917431709854        0.42135339878749        0.67958300450941
H           -0.68972270022432       -1.93928207502666       -0.81119927589859
H            1.75897859047478       -1.91275810084142       -0.60450693181971
H            3.78078730219004       -0.79543136277642       -0.09382662657500
H            3.52402035977219        1.92790024282346        1.20647829086592
H            5.80964309938342       -0.70580500256760       -0.27419431727079
H            8.22641826089863       -0.64327753474606       -0.09944053045252
H           10.27811998597833        0.45175025366856        0.72701946587689
H           12.10669564492816        1.57398744483689        1.56061459391948
H            9.99714759812661        4.01158189525399        3.04618308505966
H            7.55350531653751        3.95453037081575        2.88528154537721
H            5.50713171737498        2.85556941267286        2.05746771622936
H            1.51500089590274        2.07969484356211        0.89168544854882
H           -0.92061227567319        1.97431169382971        0.66618274768703
