35
 energy: -7.246885445756 gnorm: 0.000864303626 xtb: 6.5.0 (97a52f5)
C           -2.38244435011362       -0.01645148493655       -0.18107631090218
N           -0.92154806085828        0.01716974835502       -0.06356695840600
C           -0.17599156789849       -0.99268698449316       -0.58836916245221
C            1.18655037465104       -0.97068240739225       -0.49339814631753
C            1.83757512866102        0.09496769314150        0.13968746890242
C            3.27989598261799        0.09098853004111        0.23541113914768
C            4.03123269428171        1.05352309939360        0.80802738503009
C            5.47319428022521        1.04482218263112        0.90913348310780
C            6.26653565363573        0.00200129543290        0.36737342544352
C            7.62004290905988        0.01456457677103        0.47709719123983
C            8.28713872794097        1.07603199416256        1.14130164507285
C            9.67216718344647        1.11056826951665        1.26989853709569
C           10.33105110764130        2.16813672437068        1.93504753501040
O           11.57328873570201        2.19469938820819        2.05037847616256
C            9.51313902399116        3.21999693136933        2.47974066146463
C            8.16795992082602        3.19862749888841        2.36147513424754
C            7.50595347386003        2.13164054576621        1.69133909809271
C            6.11535158207908        2.08915382131301        1.55879138128749
C            1.04420143348076        1.12481138232837        0.65987285327553
C           -0.31688965100750        1.07101839177415        0.54911480637265
H           -2.73348843707271       -1.04151452062368       -0.28225080027838
H           -2.69630034276974        0.55014061456548       -1.05551523231731
H           -2.84271580694040        0.41782224125886        0.70429737903480
H           -0.68156193909431       -1.80492971060144       -1.07940440840309
H            1.77133476958530       -1.77378847655785       -0.90713400656260
H            3.77508993335082       -0.76383911209429       -0.18646246123260
H            3.53474672632110        1.90565529160421        1.23389590984796
H            5.78914486097604       -0.81482231187940       -0.14244245937995
H            8.20626165115140       -0.78495888370590        0.05848416097539
H           10.26719139113824        0.31782117552833        0.85832941329664
H           10.00820820871857        4.02739565672917        2.98828995181924
H            7.57420810169584        3.99410554524338        2.77741532329686
H            5.52931294732681        2.88839541611728        1.97504348812583
H            1.50330050284090        1.96207800886842        1.15269949112452
H           -0.93427714945094        1.85736786890394        0.94517460777843
