42
 energy: -6.345294965977 gnorm: 0.000723013098 xtb: 6.5.0 (97a52f5)
C            1.24428876677802        0.46652427343156        0.01711487355557
N            2.70831563714374        0.40622493632615       -0.06478775872259
C            3.45271780973990        1.44472547557849        0.42843470226736
C            4.80774630910793        1.41312501010895        0.35778707654052
C            5.47684687136130        0.32766360380101       -0.23947895883150
C            4.69300248900098       -0.77902866397038       -0.63769125379441
C            5.33225485853031       -1.99284061607788       -1.02006732212819
C            6.67190532718147       -2.12170150470372       -0.93307321964848
C            7.49279521547291       -1.02421866830230       -0.54396645125830
C            8.86512370453586       -1.20020619737148       -0.31911874292699
N            9.63664732816688       -0.19834260307331        0.10238714629884
C           11.04999553767937       -0.47246158954147        0.39685841614051
C            9.14627421801049        1.10820940859514        0.20196732081629
C            9.97631546982892        2.17995288774528        0.62003059119197
C            9.56285124322425        3.46381509200201        0.54015731452802
C            8.31565613202523        3.79075946230854       -0.05572041796157
C            7.95677396385849        5.12751530748140       -0.30455327722291
C            6.82966360909584        5.42631173160443       -1.01115080368064
C            6.03277738048006        4.40441659997788       -1.51528476629884
C            6.34641411734824        3.09976138865153       -1.26643634505734
C            7.45880735091156        2.74995192929535       -0.47872205131211
C            7.81782315641415        1.37203646222038       -0.18462279892313
C            6.92125573152877        0.25032864838413       -0.34665660057474
C            3.30064240236013       -0.68515328028622       -0.56734888160043
H            0.91265766839373        1.48640876470180        0.20039653568753
H            0.89689606048333       -0.17007819360474        0.82873332398419
H            0.80726629167742        0.12572702723740       -0.91953390257821
H            2.94384103622789        2.27686198126857        0.88519901493279
H            5.38277314158740        2.20734395740346        0.80060645752506
H            4.72555453812384       -2.83063395960060       -1.32031085100512
H            7.13865967572870       -3.06488120018285       -1.16275505966435
H            9.29741315826591       -2.17832264928726       -0.43230448079636
H           11.29544440770626       -1.50863083311427        0.17407330482580
H           11.24901871268242       -0.29436230480483        1.45169711394497
H           11.68743292419618        0.16421662749248       -0.21341625980626
H           10.95108346636598        1.96631276347614        1.02212265101922
H           10.20788267916007        4.26107080470057        0.86970060878129
H            8.59834040949498        5.91784359269276        0.04748768889490
H            6.56927346975555        6.45545432698672       -1.20507649210769
H            5.16694292145220        4.64681185987819       -2.11140283325229
H            5.75140557906134        2.31983611258072       -1.70931157971171
H            2.68641922985347       -1.50849777200882       -0.88590303207166
