30
 energy: -3.522875306956 gnorm: 0.000381906058 xtb: 6.5.0 (97a52f5)
C            0.98203347782831        0.04942859401280       -0.07321731947372
N            2.45226334787789        0.06881037929339       -0.07393892788090
C            3.11508707491280        1.26514394282212       -0.07437896429261
C            4.47375125166301        1.30239838314958       -0.07499734080970
C            5.22576309370057        0.11533970898629       -0.07517393432439
C            4.52248634841941       -1.10846082957922       -0.07469855677569
C            5.24203522385839       -2.34133129261952       -0.07494405082871
C            6.58778826231325       -2.36061927295440       -0.07583276985085
C            7.34265862013429       -1.14897345284185       -0.07650506615707
C            8.73829104090208       -1.17093333784529       -0.07783795464797
N            9.44583155013510       -0.03177878276363       -0.07860379621828
C           10.91583218534416       -0.06049414179479       -0.08156238355136
C            8.81695174995209        1.18207081610460       -0.07760063771293
C            7.46011055770832        1.25949834569864       -0.07631955222118
C            6.67453552514504        0.09449982579471       -0.07596546205848
C            3.12698032930391       -1.08948942397301       -0.07403805154554
H            0.58182524320469        1.06175860410846       -0.07374353832878
H            0.62248856130258       -0.46631547601641        0.81623119430077
H            0.62159469951706       -0.46756504084366       -0.96158111903708
H            2.54053133956830        2.17755231443503       -0.07422438375263
H            4.96944490208476        2.25758521095004       -0.07542008389398
H            4.68867627147165       -3.26717000051534       -0.07447211960546
H            7.11416910676640       -3.30203098162685       -0.07606494063808
H            9.26196008950281       -2.11127791592814       -0.07855351118558
H           11.28142742117746       -1.08587213665647       -0.08409753687785
H           11.29476527093525        0.44164722730817        0.80761555567529
H           11.29117932740409        0.44459768275513       -0.97059769118657
H            9.42172891627101        2.07507087046467       -0.07785982002959
H            6.99259776065492        2.22880108371836       -0.07557556358654
H            2.57239145094040       -2.01220090364340       -0.07360167350451
