100
 energy: -17.975717977330 gnorm: 0.000630978164 xtb: 6.5.0 (97a52f5)
C            5.11977062865975        1.01044980123381        0.70996728180746
N            6.24533071621107        0.35271375199411        0.05556331943118
C            6.71902737762654        0.69204581751573       -1.22275951586535
C            7.47859548727246       -0.34051478822902       -1.68171913906389
N            7.48894863415900       -1.34335159813038       -0.69971592563236
C            7.90217531603381       -2.73672026120904       -0.92631984966922
C            9.34503935375858       -2.85109448235842       -1.39812907676931
C            9.85044818554462       -4.29512130412895       -1.43594198413589
C           11.32315764114505       -4.41409519512022       -1.85772363041241
C           12.27123064791964       -3.57074467153221       -1.05172214025329
C           12.11551184032320       -3.43411081272652        0.33304293829530
C           12.94523264888969       -2.63285183864095        1.08025284799341
C           13.98992549811494       -1.97019014077888        0.44623189228372
C           14.17729073461862       -2.12016843919061       -0.93605764414941
C           13.31801894042569       -2.91837558457459       -1.68206563530027
C           15.29332880308323       -1.27648036182118       -1.31190744003774
C           15.91823570612408       -1.04010861980836       -2.53095553452061
C           16.97357712095560       -0.15642877679869       -2.57201471146809
C           17.41234720266484        0.48897773999410       -1.41869173180170
C           16.80188690099667        0.26474593629595       -0.20771875012858
C           15.72771293890474       -0.61694585031622       -0.15055969072312
N           14.91321110717861       -1.01457627510214        0.93490017070181
C           14.94947442477727       -0.51532139412196        2.26704131892174
C           14.85962109816222       -1.41023389640739        3.32809322172559
C           14.89588401334608       -1.00118290867130        4.64698761957184
C           14.79536565926461       -1.96163555879814        5.65781162099223
N           14.70709162789912       -2.77585323695590        6.48171359094422
C           15.03635196656213        0.37264613073318        4.93142258182409
C           15.06553271985258        0.86132055050363        6.24067660758313
N           15.08697014052521        1.28870896823685        7.32067071192667
C           15.13111260565929        1.26675020934568        3.88287354327607
C           15.08211141334306        0.86696866268133        2.55086620140997
N           15.08051977304807        1.87023223746361        1.53697676250651
C           15.83662522553337        3.06638279370093        1.60834782410650
C           16.90959291139981        3.41609167404994        2.42386634379943
C           17.47936076046718        4.65875198977943        2.27550648352143
C           17.00242825582202        5.55804877699963        1.32555416935481
C           15.95107752654379        5.22393581026569        0.50202938608033
C           15.36888362002871        3.96924830354092        0.64049087367289
C           14.28757193064488        3.31906204209475       -0.06520327524544
C           13.40921400625222        3.77751121409574       -1.04103015509710
C           12.41529898696607        2.93598984687476       -1.51028176480353
C           11.29973473032614        3.47823701109567       -2.35664872611025
C           10.19657150619351        4.09492580491554       -1.47969558762284
C            9.72493183427055        3.11055932178786       -0.40672388366016
C            8.87635789226952        3.69041358487187        0.71874667536250
N            9.01239642243413        2.81851136859023        1.89923339408566
C            8.62101492245777        1.46889198078648        1.83593901763701
C            9.49944209298487        0.72024927262148        2.55723859917553
N           10.46186680327845        1.58419506900305        3.10213254959165
C           11.79610845809494        1.16561129646588        3.51127637529451
C           10.16322655437816        2.89840172673681        2.70882083121802
C           12.33859760476225        1.62633332545390       -1.01713922586562
C           13.17698570624585        1.17870255959656       -0.02625734220966
C           14.15641539317402        2.02856805604719        0.47180679898434
C            6.69460041656623       -0.93580724847564        0.38323328902957
H            5.17837513437229        2.08581352496663        0.55982122750523
H            5.13502109375326        0.80212465065051        1.77721672961275
H            4.18672064648226        0.64322229681521        0.28906137651890
H            6.46316650900383        1.59199004557843       -1.75527558141376
H            7.93894195410054       -0.41893499113465       -2.65143659220592
H            7.21637684102077       -3.18673239836336       -1.64905217682852
H            7.76815356926467       -3.28296496502759        0.01119834444870
H            9.98096617039584       -2.25467114895520       -0.73487922167999
H            9.45317807584422       -2.39156343829486       -2.38664485315351
H            9.21688836845017       -4.88489927484042       -2.10958711148348
H            9.71182310712636       -4.75021467476638       -0.44908199693273
H           11.41323296543352       -4.12905138356551       -2.91164069239739
H           11.65116113459281       -5.45862415915155       -1.80621643306334
H           11.31894632927522       -3.96417972023590        0.82430819728516
H           12.78260836729780       -2.49960568911236        2.13404730849730
H           13.46101573164490       -3.01191563902119       -2.74257155813331
H           15.57559267201755       -1.54314222680031       -3.41765102618674
H           17.46779465595196        0.03796422358137       -3.50957621732956
H           18.23988306711577        1.17674030150136       -1.47704924442624
H           17.12579301707774        0.76747922730828        0.68543019881660
H           14.79311125488279       -2.46122247448984        3.11481828820407
H           15.20024953889152        2.31528783035110        4.10671412695074
H           17.29243067213067        2.71160037137099        3.14022349906525
H           18.30969676106336        4.94040225735522        2.90206475643165
H           17.46616639832524        6.52602387631711        1.23025953175868
H           15.58298942435566        5.90930233999932       -0.24058837623002
H           13.47316281726778        4.79233030507394       -1.38767871659084
H           10.88448471293578        2.66826183357326       -2.96533029359587
H           11.69511401180868        4.21378116970751       -3.06562718051443
H            9.34898859152481        4.43378667352341       -2.08647544760596
H           10.58965858801658        4.99332168178637       -0.99034772069032
H           10.60741137788982        2.67436604519859        0.07701981013121
H            9.21314730236215        2.25937384708863       -0.87005820042621
H            7.82305809187347        3.77520013471752        0.43928690730200
H            9.21687853838443        4.69180317742769        0.99479143468670
H            7.84798580281358        1.09757307879547        1.18525073458825
H            9.51898542630553       -0.35323728871242        2.63439109202896
H           12.08411814741654        1.68442456035586        4.42205189926677
H           12.50660562655973        1.40734436955868        2.72486271829093
H           11.81920441352430        0.09409646550714        3.69303401640427
H           10.85941287380986        3.71743061943799        2.72369246421688
H           11.57205506437670        0.97268469705595       -1.39595507178742
H           13.09512997110253        0.18158631324333        0.35804024989895
H            6.31838274773754       -1.56224583532562        1.17128632259536
