57
 energy: -10.626435555186 gnorm: 0.000190341980 xtb: 6.5.0 (97a52f5)
C            2.82465288753284        0.96395430863597       -1.28167369725552
N            4.11804385848656        0.49030252390975       -0.80056216524943
C            4.84001080117259        1.06848826595903        0.25621606260287
C            5.83623206056100        0.20915772536603        0.60630770540555
N            5.73812417758767       -0.92244647544218       -0.21581079827454
C            6.54057711853693       -2.14586744396111       -0.07312015343713
C            7.93749031342040       -1.98911034582864       -0.65717415813368
C            8.78728299250903       -3.25359279889360       -0.50959783760818
C           10.22129211163521       -3.10145878085075       -1.03857892689761
C           11.08642033572072       -2.08993309641185       -0.33461127288850
C           10.81755898015958       -1.64609548253730        0.96536930233984
C           11.64113139346261       -0.75432955805025        1.61623467299143
C           12.79094109560126       -0.30540139551047        0.97695764745899
C           13.07248817549010       -0.74120947196435       -0.32728877075264
C           12.22645097418134       -1.62918095714847       -0.97685140633786
C           14.30868047798893       -0.10550495354172       -0.73542821042784
C           15.06778137920494       -0.20786919356050       -1.89364073222511
C           16.24718080169023        0.50154375229204       -1.97703062002292
C           16.67307153024564        1.30216410230983       -0.92277766862060
C           15.92842544102158        1.41055167504787        0.22999670012838
C           14.72997279141849        0.71063738135630        0.32916937995363
N           13.80592369241100        0.59013870022856        1.39432410263659
C           13.90207574391045        1.19867691566367        2.67315520401519
C           13.56707310796181        0.49369144577643        3.82666351368094
C           13.64768954080749        1.06371248825715        5.08322568768160
C           13.29807202188064        0.29660496942457        6.19730180154504
N           13.00126536545570       -0.35803744083404        7.11078475415749
C           14.08670547519747        2.39875065288597        5.20506312602826
C           14.19141032723755        3.02744629750721        6.44230589713743
N           14.28513611831324        3.56771467676135        7.46876748019254
C           14.42539740340151        3.10265571251833        4.05549564470827
C           14.33602812208005        2.53267571092584        2.80592528591968
F           14.61469355561146        3.26484016613649        1.71759206153653
C            4.66171678458144       -0.76776002005964       -1.10046600409977
H            2.80488117521302        2.05132949681877       -1.28432344723375
H            2.03368418797395        0.59424588345164       -0.63288659064714
H            2.65134193389882        0.60679822675072       -2.29423225761700
H            4.61235411602027        2.01610824690348        0.71457880276628
H            6.55669534946604        0.33979354731420        1.39575935137984
H            6.00882176264314       -2.96715257329056       -0.56096017398368
H            6.59046503087395       -2.39791337790690        0.98964807092572
H            8.43663888841192       -1.14063005711784       -0.17703667779617
H            7.86111539274755       -1.71124633508444       -1.71462940299051
H            8.28593025543242       -4.07861747967061       -1.03113411228030
H            8.81148960932294       -3.56259421409979        0.54095578769133
H           10.17632558819303       -2.83698244241256       -2.10091617343606
H           10.73474325023913       -4.06957399888943       -0.99927824225619
H            9.94758520464674       -2.01425307200999        1.47867192937588
H           11.39436379351160       -0.39318505943894        2.59800522253751
H           12.46374394948224       -1.96407440909001       -1.96979050829117
H           14.73755318940564       -0.83781365555890       -2.70052177603250
H           16.84898612279376        0.43091229577969       -2.86829184096248
H           17.59981239293511        1.84564050776558       -1.00965644217733
H           16.24952379967136        2.03519332089078        1.04446899479004
H           13.27285812793071       -0.53647592182655        3.74341592903553
H           14.75850884790823        4.12192193266796        4.13464322117255
H            4.24949107481735       -1.51192091830258       -1.75767327184410
