91
 energy: -18.751654542813 gnorm: 0.000787301809 xtb: 6.5.0 (97a52f5)
C           -1.94451381400444        0.02485654902816        0.13360949677170
C           -0.73256692125432        0.15637814215268       -0.72112605202379
C           -0.09193882352746        1.38559212006612       -0.87685441307491
C           -0.57924474408318        2.59178949885333       -0.15273617718068
C           -1.23747491337834        3.61619169576463       -0.83550518628386
C           -1.66274408132080        4.74065589980058       -0.17276867173338
C           -1.44030052743555        4.88556698230612        1.19684151706973
N           -1.86146823901729        6.08283588728312        1.89236650625051
C           -3.20413454822970        6.20067235512751        2.34739296726749
C           -4.10808353652190        5.17106943941947        2.09055148653076
C           -5.41134138913469        5.24102911247846        2.52155600040641
C           -5.83692609411603        6.34754342243997        3.22365126290380
C           -4.95307466735875        7.37463121219171        3.48750522341796
C           -3.63428153176362        7.32653396724789        3.06025279871826
C           -2.68856995145198        8.49165249630065        3.38531604256882
C           -3.27418873769303        9.78211083749705        2.77577125779398
C           -2.58834780085595        8.62781209250607        4.91808660715199
C           -1.27519965681648        8.28375032381832        2.82323692056606
C           -0.31149400671368        9.26367959330522        3.01147401171982
C            0.97226871790882        9.11850041138210        2.52534595937685
C            1.31862335314524        7.97730948302740        1.83517593509646
C            0.38028314322468        6.99286271723765        1.63799058937169
C           -0.91996677954729        7.12392897163074        2.12358629420350
C           -0.77934476911870        3.86506588082741        1.88015930850166
C           -0.35543849520424        2.74050827347399        1.21792323297349
N            0.98266027204743        1.51595794575675       -1.65827478300433
C            1.38254612671510        0.40674019337933       -2.23445797773197
N            0.88577548643244       -0.80686863543845       -2.17426137313154
C           -0.20705065055143       -0.93255876093077       -1.41736224973602
C           -0.83502652811501       -2.27478027613798       -1.32722930170752
C           -0.07825240702456       -3.37966816334259       -0.93949736893546
C           -0.64228080085403       -4.62914928040679       -0.86400267724976
C           -1.98768716421005       -4.83611028121126       -1.17086269156286
N           -2.55916187636355       -6.14912170810983       -1.13535896029638
C           -3.83978569184932       -6.42911423659834       -1.72395663229027
C           -5.00087946634598       -5.79778176621584       -1.28438362752320
C           -6.21473056045765       -6.08726427794781       -1.86147299005413
C           -6.28702401822104       -7.01892735761697       -2.87685445760092
C           -5.14658459035631       -7.67303973026094       -3.30203531791355
C           -3.91452823291573       -7.40448329006267       -2.72907127203674
C           -2.61063687033251       -8.10797537891902       -3.14722201853718
C           -2.90445490123109       -9.44555790970336       -3.85488393172231
C           -1.84378575952593       -7.18919598230024       -4.11346807201064
C           -1.75105949922247       -8.32445505811494       -1.88867012995418
C           -0.97222738769661       -9.45022039526869       -1.67794080219019
C           -0.22303700482214       -9.59179418311836       -0.52558244030838
C           -0.24553979159193       -8.60829937946279        0.44216180283135
C           -1.00573704698837       -7.47870765372127        0.25119904290976
C           -1.74630006142157       -7.31333278578498       -0.91681418244479
C           -2.73101820457726       -3.73366945014645       -1.59415598251189
C           -2.17198078147171       -2.48183436900711       -1.66896316133001
H           -1.90952394415482        0.70374685741368        0.98513980349546
H           -2.03913863744561       -0.98614056516974        0.53083383267728
H           -2.84634740954645        0.25247564092378       -0.43546883420183
H           -1.40626994137522        3.51091656103358       -1.89315586492069
H           -2.16683310113799        5.53090616066547       -0.70114155215978
H           -3.77095607962443        4.30778593984087        1.54511228290582
H           -6.09634698837140        4.43550024247065        2.31227906674879
H           -6.85676676519460        6.41050997704732        3.56680380110641
H           -5.29639621620329        8.23132822956677        4.04074001508905
H           -4.27140701428881        9.98719649512734        3.16154188469964
H           -3.34416449232159        9.69161212223136        1.69239714036365
H           -2.65152017203162       10.64640159613729        3.00113819096592
H           -3.56549412459827        8.80198815364751        5.36564581136710
H           -1.94259242837182        9.45784152861624        5.20023262193579
H           -2.17594702219631        7.71808400989883        5.35322634767294
H           -0.56881089689434       10.15808288650786        3.55157596627711
H            1.70193540384911        9.89560876928754        2.68492529529295
H            2.31918677728499        7.85750415829854        1.45262654582619
H            0.64645456637329        6.10151864364753        1.09827815193865
H           -0.60413498845122        3.97903745126141        2.93568635381525
H            0.16612171171549        1.96193448913883        1.74758937314937
H            2.26053103678136        0.50866933957071       -2.85792845945895
H            0.96104976039787       -3.23643734885520       -0.69964301561301
H           -0.03167858459638       -5.46865489239381       -0.58786608342000
H           -4.93755059520214       -5.09674106093493       -0.47027724126885
H           -7.10773018891875       -5.58961792222609       -1.51995106021364
H           -7.23737495193679       -7.24348891602709       -3.33305627267602
H           -5.22443946341234       -8.40060580568156       -4.08971990836841
H           -3.49578189713309       -9.29281189263860       -4.75625200960876
H           -3.44838636606431      -10.12145758921659       -3.19612190358773
H           -1.98450923529922       -9.93638743074610       -4.16842875434057
H           -2.43043297877135       -6.99161583329195       -5.00988420604017
H           -0.90056163199408       -7.64331584522469       -4.41500506847227
H           -1.62074684484353       -6.23418102051245       -3.63940124287205
H           -0.94514121244173      -10.22974592252618       -2.41781009669640
H            0.37507015006779      -10.47635591478579       -0.37857955674611
H            0.32861998649745       -8.72659519937564        1.34662323660458
H           -1.05275720039709       -6.71781692804608        1.01081922507128
H           -3.75284141254013       -3.87231719167884       -1.89455746524728
H           -2.75728038192519       -1.64703716735300       -2.01396771362765
