87
 energy: -18.881177349227 gnorm: 0.000236550228 xtb: 6.5.0 (97a52f5)
C            2.09031082364392        2.27709872919697        0.09815083866562
C            0.69124939137523        1.82318974477229        0.33650777312229
C           -0.19947110703023        2.61233157924261        1.09160734280806
C            0.15573305377960        3.97083562684606        1.56192290341013
N            0.90578129598316        4.71553601479012        0.76448192519469
C            1.15243131426018        5.93546955873974        1.21165885757966
C            1.97260451933859        6.81136914303236        0.35676080931752
C            2.26523952962333        8.11611507316110        0.74281089872219
C            3.02453350286569        8.93449269318915       -0.06415936816613
C            3.50484308940417        8.46423949833957       -1.27073445736745
C            3.22324111986984        7.17207794883976       -1.66839327523758
C            2.46380161570991        6.35326063296697       -0.86251520554110
N            0.71285318884636        6.43292418928575        2.35652664547369
C           -0.03875820576152        5.60471018212961        3.06555450513657
C           -0.57631395350514        6.10772013415070        4.34195456976197
C           -0.27697471934317        7.39404589663067        4.78167069415195
C           -0.78362208635017        7.86663683693242        5.97201572937087
C           -1.59851826203763        7.06251300066092        6.74444647688476
C           -1.90523215289565        5.78373557330711        6.32236405890027
C           -1.39922456855437        5.31021632414808        5.13200477026862
N           -0.35571832566668        4.36737189536032        2.71765702937766
C           -1.47819681730592        2.12830953240545        1.35997622619242
C           -1.90617598901809        0.93864013462038        0.83332573439612
C           -1.06635574529891        0.18818834087503        0.01941406707781
N           -1.59092034957658       -0.95081113709125       -0.68913639859940
C           -2.03977846736897       -2.17578740604465       -0.15453319159778
C           -2.06260977322666       -2.64221537987538        1.15861755791046
C           -2.55448960088229       -3.90148012188587        1.40162811425385
C           -3.02369785435365       -4.70568511818952        0.35876097119777
C           -3.00665165679522       -4.26071409681223       -0.94177989577188
C           -2.50959706262676       -2.98382557498833       -1.20542731828900
C           -2.36035895303987       -2.23043951267006       -2.43040303891511
C           -2.66742815315829       -2.52316750402210       -3.76121905008163
C           -2.40964336492028       -1.56131535368991       -4.71260749237366
C           -1.85376573893257       -0.30898098864539       -4.35479473411385
C           -1.55110626734889       -0.01379184968246       -3.04797892233427
C           -1.80249672564635       -0.98644812740801       -2.08187127823843
C           -1.64701950037829        0.61175289706401       -5.55510329540533
C           -0.77139446212457       -0.16975450208184       -6.53281839436181
C            0.44588336558561        0.22636848838461       -7.05371820646678
C            1.11181476560116       -0.60822343496777       -7.92952521709639
C            0.56864855632235       -1.82980957130487       -8.28413948516520
C           -0.64685361252374       -2.23318409616155       -7.76684214587697
C           -1.31971654670356       -1.40402576306980       -6.88935674462423
C           -2.66435765693112       -1.67776376494501       -6.21511683185892
C           -3.56320736295663       -0.49622006923034       -6.58046703806503
C           -4.79894696096970       -0.55246108511055       -7.19694730628339
C           -5.48253558083175        0.61982270127197       -7.45435735687406
C           -4.93927359296923        1.84138629669253       -7.09989166446538
C           -3.70488914852686        1.90645852575745       -6.48418794955050
C           -3.01444949440407        0.73784348017367       -6.22405591136665
C            0.25193028907532        0.61716434697334       -0.20430436359270
C            1.16632888554500       -0.23285600854793       -1.01646460345985
H            2.38669018499581        3.03711410756284        0.82087761753476
H            2.19347667721443        2.70489265602214       -0.89926030924023
H            2.79823057286598        1.45349674801597        0.19094405218112
H            1.88502906450665        8.47633980560034        1.68248673798033
H            3.24278374822000        9.94344025434810        0.24560321092666
H            4.09815778612258        9.10536630531387       -1.90203387790185
H            3.59655265562537        6.80442480544539       -2.61027084743773
H            2.23662308211808        5.34694262754145       -1.16722574489358
H            0.35745797198923        8.01492504200033        4.17388436288391
H           -0.54434537588131        8.86491636471956        6.30037497569875
H           -1.99531953666548        7.43293012378884        7.67552130339332
H           -2.54162661127117        5.15595830969647        6.92446203460429
H           -1.63535785865332        4.31607470718346        4.79540033549534
H           -2.14242680012204        2.72828916152735        1.95740469800309
H           -2.91064881189527        0.59203761591888        1.00311458008364
H           -1.69763073472370       -2.01628620053472        1.95332758090237
H           -2.57933927354312       -4.27659875437868        2.41153691177828
H           -3.40451495840444       -5.68945886666673        0.57890880269150
H           -3.36658889304884       -4.87359486585978       -1.74917136232785
H           -3.09296678779983       -3.47108411545010       -4.03283207331912
H           -1.13157123140938        0.93578952436190       -2.77362550882209
H           -1.21601675493857        1.58246435110295       -5.27846337117951
H            0.86165201392108        1.17807044834756       -6.77159222380578
H            2.06149901190761       -0.30489018520190       -8.33901314462729
H            1.09774832955079       -2.47234370690345       -8.96878117591831
H           -1.07544980255258       -3.18254725296783       -8.03715150668613
H           -3.09538569990120       -2.64574644519957       -6.50057883088615
H           -5.21504237599837       -1.50671797050677       -7.46953593977255
H           -6.44643480757073        0.58188633899953       -7.93500090124462
H           -5.48247919495340        2.74929620152299       -7.30532275556198
H           -3.27487148887694        2.85264431633535       -6.20488635995738
H            0.64664575717330       -1.10487457291058       -1.41345689925628
H            1.99788783945364       -0.59905527322984       -0.41366667579278
H            1.57294381567615        0.32363384071457       -1.86154605327312
