49
 energy: -10.783622925116 gnorm: 0.000559870439 xtb: 6.5.0 (97a52f5)
C            0.97240639916172       -0.25409401259046       -1.49287818504420
C            2.38407052688852       -0.19442880179260       -1.02075816273433
C            3.00846671463249        1.03147663461111       -0.85677868832087
C            2.25906150427802        2.30557922525339       -1.06099628190041
O            2.58565070511783        3.08352844780263       -1.93262671003027
C            1.12896574454634        2.61087818518106       -0.14910168837265
C           -0.15057043991256        2.82846960979896       -0.66326799892454
F           -0.38933773613128        2.65878534290341       -1.98150313573544
C           -1.18602175408555        3.13924996751189        0.19274896190705
C           -0.98027191684765        3.22367602819944        1.55590458910646
F           -2.00767956716067        3.51757476696850        2.38570401977866
C            0.28464770042006        2.99872805905275        2.06332426491467
C            1.34005370782515        2.69799471528003        1.22869524816566
F            2.57527460856633        2.50219359438094        1.73978443894418
C            4.38110220047678        1.10169056918967       -0.48789882710465
C            5.04330355171807        2.35155599261145       -0.36190056632693
C            6.34305172527999        2.42847067266022       -0.00033422456363
C            7.09855280621490        1.25193795121445        0.26619136168877
C            8.44454819483059        1.31657099444659        0.64317996403506
C            9.15076168874371        0.17034138700961        0.89546945867712
C            8.54563422467704       -1.06949032735839        0.78172972213687
C            7.21279186955090       -1.19500514400291        0.40990517139171
C            6.54816515798853       -2.49123344885307        0.28547613219194
C            7.20566696866545       -3.69208282717510        0.52408871801766
C            6.55629673958479       -4.90808734298981        0.40436384963621
C            5.23549078927520       -4.95962131052017        0.04390478505095
C            4.52359774588403       -3.78326491903482       -0.21147769283661
C            3.15090269845996       -3.81208922161162       -0.58744472012473
C            2.47151730255596       -2.67263955840699       -0.84115737408051
C            3.09527165695402       -1.39329101097131       -0.74520831551208
C            4.45079545601140       -1.33475853927597       -0.35890787828930
C            5.17953015979977       -2.53643226284979       -0.09264414776018
C            5.09874723131145       -0.07903603557023       -0.23769263008119
C            6.47453607340849       -0.01170442555258        0.14640804141301
H            0.65681364197970        0.70079035929292       -1.91267965484327
H            0.29680924530190       -0.50229560271194       -0.67419593489123
H            0.85194956243050       -0.99721787657916       -2.28096710239655
H           -2.16925117266715        3.30444829840147       -0.20524728178062
H            0.44933132498825        3.06459061836258        3.12197368174545
H            4.48545016966630        3.24695511531683       -0.57453148655905
H            6.82584735311594        3.38620926709349        0.08801639377987
H            8.91963459091473        2.27806091173758        0.73363954882435
H           10.18679401643535        0.23391918433472        1.18593348269413
H            9.12932797875938       -1.94713156520307        0.98938236367078
H            8.24189761470744       -3.68871828382921        0.80762151709648
H            7.09423266200700       -5.82202908750185        0.59665725132243
H            4.73421102189868       -5.90773731626853       -0.04702995245966
H            2.65702702055619       -4.76529498061664       -0.66502362127919
H            1.43161453122631       -2.72969199734897       -1.10874070425364
