52
 energy: -11.300473581506 gnorm: 0.000240931514 xtb: 6.5.0 (97a52f5)
C            1.13081052052246       -0.61621657727072       -1.76213511680653
C            2.51258304790460       -0.44726173719984       -1.22735089147733
C            3.06640735508804        0.81780496322552       -1.10649557967999
C            2.27197125103293        2.03843968852261       -1.42769329199905
O            2.60330032860822        2.76754532298966       -2.34070348602046
C            1.08138029266151        2.36236593636286       -0.60482255123077
C            0.16730108630784        3.29710193119067       -1.06668374128922
C           -0.95071931703772        3.60988755513087       -0.32711528659402
C           -1.17104550082167        3.00059716800755        0.89090792777849
C           -2.42824053102043        3.32848906076675        1.69011088140040
F           -2.70699602178428        4.63642704100182        1.54288788805990
F           -3.43969213889205        2.58133348323380        1.21279492044281
F           -2.21130395377479        3.04366985078401        2.98700165113049
C           -0.26507805192311        2.07209109655443        1.36159078666237
C            0.85414609626361        1.75680486223481        0.62515637163441
C            4.41378028337445        0.98008795754740       -0.67581416688486
C            5.01001438274285        2.26731167361083       -0.59974591427393
C            6.28331366554108        2.43171769323214       -0.17716910846326
C            7.07763348379233        1.31362991263157        0.20381035621489
C            8.39640235315623        1.46952754383096        0.64504405016234
C            9.14254242566383        0.37794867852342        1.00285348675820
C            8.60560806406025       -0.89604649887139        0.93297906422817
C            7.30276615454817       -1.11168182308448        0.50088709705737
C            6.71184083376623       -2.44615600101263        0.41581835230394
C            7.41583592030968       -3.59612176905510        0.75247489396731
C            6.83670332114113       -4.84988355877712        0.66549168523693
C            5.54181997741279       -4.99081709489066        0.24035833590656
C            4.78585564515816       -3.86897811649462       -0.11449269538728
C            3.44023111170503       -3.99135373115822       -0.56258914008852
C            2.71921849636053       -2.90461337800306       -0.91410246721222
C            3.26946472818263       -1.58984439257426       -0.85161138319500
C            4.59696069962513       -1.43860526978108       -0.39909459545775
C            5.36980731934887       -2.58415378934148       -0.02920341560961
C            5.17396592821039       -0.14550221590420       -0.31808174365995
C            6.52260626694089        0.01476991903197        0.13022953178143
H            0.73701825840905        0.31947714566947       -2.15795051109844
H            0.45006596597904       -0.96178674530837       -0.98379768098772
H            1.11555147151522       -1.33675962164819       -2.58001111213200
H            0.34935326546574        3.77265950755618       -2.01550984992613
H           -1.66503140706750        4.33168852581808       -0.68565264021596
H           -0.44891809221814        1.60119143740947        2.31248880601588
H            1.56128923576808        1.03628662559330        0.99769711517611
H            4.42855391711635        3.11793050433909       -0.90954897723859
H            6.71646938083271        3.41573907003698       -0.12973268275967
H            8.81858846908471        2.45805923937370        0.70049986545029
H           10.15679004654454        0.51165176261359        1.34220465990895
H            9.21918515273699       -1.72906683349652        1.22245106044979
H            8.43387912158138       -3.52242280756419        1.08768166920469
H            7.40948736912765       -5.72255601347551        0.93371232636919
H            5.09542412000446       -5.96795650969434        0.17382820335735
H            3.00181838793357       -4.97279954362987       -0.61713383943539
H            1.70247981302422       -3.03114112857383       -1.24066911750742
