69
 energy: -15.629486273718 gnorm: 0.000162988176 xtb: 6.5.0 (97a52f5)
C            1.39559338185570       -0.45086886439953       -1.96595820675910
C            2.73652638524477       -0.32954177278356       -1.32457422478537
C            3.27135322944838        0.91963605669897       -1.04682027433524
C            2.48299101678985        2.16106572717772       -1.30607249286067
O            2.92551819969110        3.02777713138175       -2.03709431346798
C            1.16256736505114        2.29689338727892       -0.64088713470058
C            0.96562019545313        1.72554026198467        0.59608820458720
C           -0.26757668343876        1.76381425712974        1.22355205308816
C           -1.36709154251288        2.36855167715908        0.63594961130038
C           -2.67872472548400        2.38339537565049        1.28278070557452
C           -2.89464272806684        1.81168796134028        2.52622409653904
C           -4.14917453406379        1.81859078023767        3.12737607406609
C           -5.21374855824690        2.39515054934808        2.50055865455307
C           -5.05793415944223        2.99523584223288        1.23469888343918
C           -6.14889634632401        3.59347320547771        0.57226599249696
C           -5.98200198683164        4.16927109346457       -0.65189138377910
C           -4.73276776300468        4.17578796418681       -1.26447021344444
C           -3.62339506688954        3.60437436478950       -0.66380118653048
C           -2.30566821591290        3.60193379868719       -1.30271155226659
C           -2.09504404056445        4.18129228592968       -2.54241853278553
C           -0.84731340443475        4.16261552146195       -3.15143583937968
C            0.20950553722067        3.56226840957875       -2.53498063053321
C            0.06815660015116        2.95548156693811       -1.27471164551910
C           -1.20411443594188        2.97863160201040       -0.64236265436430
C           -3.78116894665359        2.99549200728858        0.61573028408674
C            4.58260492473514        1.03934369492424       -0.50271169631228
C            5.16319418868801        2.31178507170175       -0.25092298882351
C            6.40611869087589        2.43330025427777        0.26710094613796
C            7.18418311866325        1.28265212875607        0.57991554300330
C            8.47520367388228        1.39374863992663        1.11022358635773
C            9.20621244219481        0.27148418582512        1.40074503154766
C            8.67943111742668       -0.98958846943233        1.17669652774081
C            7.40335682123958       -1.16053418672248        0.65265680777827
C            6.82281849161716       -2.48072334745129        0.41099388017435
C            7.50488825831430       -3.65855741515704        0.69483453412525
C            6.93539049190274       -4.89857802813016        0.46061591157266
C            5.67211348776304       -4.99697996819431       -0.06259020400619
C            4.93915057577043       -3.84505454720694       -0.36898982957476
C            3.62498074588890       -3.92280549048769       -0.91223199206849
C            2.92570631733697       -2.80627788356026       -1.21224840099368
C            3.46869388592883       -1.50352278255351       -0.99944852196972
C            4.76223373241222       -1.39680936905639       -0.44681878506288
C            5.51310781433337       -2.57403125480246       -0.13239751200187
C            5.32479490512932       -0.11680894428930       -0.20505143300659
C            6.64118781676494       -0.00242639504439        0.34468937271526
H            1.06231101599739        0.50034048889589       -2.37997010178493
H            0.64724696003670       -0.78258442293777       -1.24553321826610
H            1.41780503865329       -1.16144353098096       -2.79234702233296
H            1.79231224469867        1.22910336749287        1.07465898259221
H           -0.36368524182815        1.29595164599371        2.18573576843681
H           -2.08115537757849        1.34658221522818        3.05145411636715
H           -4.27919783080981        1.36263951489064        4.09536868190611
H           -6.18445669829281        2.39767272343772        2.96562085880966
H           -7.11580011575984        3.58854270839533        1.04511667461602
H           -6.82307028003175        4.62270395065763       -1.15074559822086
H           -4.64215330352434        4.63750949103046       -2.23014954118272
H           -2.90679030776677        4.66081843219411       -3.05726877313100
H           -0.71570048016927        4.62518550117492       -4.11606062051897
H            1.17542859377078        3.55548193590581       -3.00592679419445
H            4.59556309806698        3.18982410724633       -0.50294692014927
H            6.82830879028116        3.40736243202046        0.44399924016664
H            8.88803329371357        2.37222914742913        1.28556264495983
H           10.19967972011735        0.37061088093511        1.80690224443625
H            9.27918763228612       -1.84838417387454        1.41595179301304
H            8.49663930403609       -3.61676076071705        1.10613369766433
H            7.48980268816688       -5.79341745654236        0.69197567723138
H            5.23195505399406       -5.96258183312872       -0.24296764331912
H            3.19321078267292       -4.89446347874830       -1.07958821705711
H            1.93028514532803       -2.89951896961586       -1.60847098157179
