49
 energy: -10.859758720061 gnorm: 0.000539327027 xtb: 6.5.0 (97a52f5)
C            0.86016651270788       -0.65124765658661       -1.43727843541852
C            2.28652143695456       -0.51187174190349       -1.02721709571318
C            2.87365428822303        0.74144185905912       -0.96182302037647
C            2.07899706992467        1.96950197080384       -1.25876825462126
O            2.27017979296485        2.59954288537007       -2.28074229439121
C            1.05929183348171        2.40788205569462       -0.27476168638595
C            0.14041119663348        3.38637545276635       -0.62566344416927
C           -0.81746359668929        3.80545773111557        0.27200950824552
C           -0.86784945796400        3.25323947134825        1.53590309752591
C            0.04296920075636        2.28225717094708        1.90038638019990
C            1.00057885983272        1.86297235917835        1.00318209518503
C            4.24587733288599        0.88283293260763       -0.60909985835500
C            4.86419820065379        2.16136874564907       -0.55970134282701
C            6.16374500038374        2.30346225565900       -0.21441321168005
C            6.96395823088874        1.17043075940939        0.10825278736810
C            8.31183713086204        1.30293098584910        0.46294019445248
C            9.06344937869894        0.19699183003949        0.76336212879167
C            8.50249026285684       -1.06854960007525        0.72152849748640
C            7.16965652762696       -1.26072304613532        0.37715739170978
C            6.55213239420308       -2.58547422168723        0.32803077347876
C            7.25732428001488       -3.74792270632202        0.61803712301628
C            6.65213502628438       -4.99216023721060        0.56910212688049
C            5.32900198981149       -5.11036494861634        0.23049901259708
C            4.56994203595397       -3.97486695061032       -0.07332129308038
C            3.19401906159964       -4.07301589026301       -0.42833802000083
C            2.46908281177172       -2.97276343472468       -0.72786021051464
C            3.04629899151816       -1.66794662441465       -0.70290856958362
C            4.40464946373798       -1.54005313586828       -0.34328430320518
C            5.18086869085113       -2.69996997540596       -0.02718107963450
C            5.00753283010020       -0.25633066535679       -0.29865916581755
C            6.38472390372423       -0.11956479926266        0.06395524861082
H            0.44585312713318        0.29820757002886       -1.77614037159333
H            0.24825847302077       -1.00219675351335       -0.60542987685943
H            0.75843955962934       -1.35708962362552       -2.26238681872025
H            0.18980901846626        3.81158299866123       -1.61336315977451
H           -1.52672051812527        4.56506356855125       -0.01355358039595
H           -1.61684857053215        3.58088138827807        2.23803253570875
H            0.00563550401011        1.85257664046391        2.88803127162955
H            1.71311197523221        1.10785094392639        1.28636501787530
H            4.27590556209095        3.02454612451347       -0.81681983615930
H            6.61370674984102        3.28063978059043       -0.18411707996073
H            8.75159026048638        2.28478909374106        0.49628916653280
H           10.10025405149575        0.31237508867757        1.03436194694017
H            9.12017410930824       -1.91389704562721        0.96300615783001
H            8.29617430935299       -3.69068735698630        0.88641827283628
H            7.22640480358524       -5.87473274719577        0.79906221796384
H            4.86147484058716       -6.07922820570165        0.19406225651935
H            2.73677058116106       -5.04705557463817       -0.45426483585926
H            1.43061548203485       -3.07933872117254       -0.98642836427476
