49
 energy: -7.237246230124 gnorm: 0.001721291175 xtb: 6.5.0 (97a52f5)
C            1.89624099321081        2.83542941751184       -3.80840715876240
C            0.63888941982307        3.22995024055108       -3.32005230033080
C            0.27658281965734        3.39845678567133       -2.07940639814325
C            1.08884238636323        3.23059482123396       -0.91034316513534
O            2.25487892860493        2.89435195907620       -0.98430378305474
C            0.46069910758055        3.48705794328580        0.41235716254115
C           -0.84977888054302        3.84323132916092        0.52675022311494
C           -1.38399645209291        4.06843488079691        1.71161419834286
C           -0.65525885302701        3.95165325832751        2.80847458372527
C            0.61865082084089        3.60670766552038        2.73218342425643
C            1.18073714095648        3.37349185545355        1.56122614175419
Cl          -1.51261218342730       -2.82263161936474        7.61358625501045
C            4.95833385992482        1.45956507920914       -0.25224175509955
C            6.18538780584914        1.93392500010124       -0.21760719289672
C            7.28205185824528        1.13147138142031        0.03253133328342
C            8.58935507952297        1.50334948536668        0.06964536095449
C            9.63556359406434        0.64230669329138        0.31970833040485
C            9.52492760487143       -0.68794099762961        0.56014470492324
C            8.43291766216502       -1.42351970012400        0.60323484923358
C            8.33328234727531       -2.76422778784084        0.86235024008393
C            9.33079222640639       -3.61472552725160        1.17297170740762
C            9.18972830533896       -4.98847032442318        1.34345644006728
C            8.04985763041178       -5.70698387835555        1.27465031522194
C            6.74842077837838       -5.39671335713690        1.28689204569185
C            6.08968959722968       -4.36144266112225        1.88065860046605
C            4.82775271471617       -4.09696890518509        1.74363103389533
C            4.05817156670769       -3.13544326646289        2.31609620088487
C            4.33588966337099       -2.18138622178485        3.20528295799308
C            5.48063342076668       -1.88608636554679        3.76247801595020
C            1.06541297563575        0.94284320207618       -8.34674208605739
C            2.11384656206758        1.61817512182524       -8.59452740649163
C            8.23502366484104       -0.00137554158713        3.48895266405291
H            2.15199023339921        1.84061996537603       -3.50024334430407
H            2.67371776418251        3.51032665405775       -3.50887925003030
H            1.92148715923722       -5.30149621542765       -3.24882049488926
H            6.69904197980165        5.40636235912781       -4.59163994113045
H           -2.77660317487007        4.42056788116992       -6.12981276411563
H           -9.41409936841300        3.19002653461625       -1.00995463034093
H           -4.06366694924331        0.67466904892968        8.98251788926745
H            4.10379784919744        2.03892928367711       -0.45638141498636
H            6.35566467183559        2.98345274722564       -0.39780669144665
H            8.81334257799411        2.54196221801491       -0.11140905985953
H           10.63398648257459        1.05007399026952        0.32859638967710
H           14.41735902028033       -3.27859723509155        0.24678377731359
H           10.32335084983948       -3.19934330555419        1.24559713243157
H           10.09528725845245       -5.55811834719613        1.48575203414150
H            1.96879415944543      -11.43437250891751       -1.53504067446363
H           -1.06103712912236       -8.26444761812279       -2.10270068288811
H           -2.48214756678014        0.01371456855004        3.74141617481993
