97
 energy: -18.408298072484 gnorm: 0.000370359226 xtb: 6.5.0 (97a52f5)
C            1.86468841510458       -1.50657314752324       -1.68033164657555
C            0.89914416588396       -0.76671265328069       -0.81890462086285
C            0.91136483461370        0.62246141439121       -0.79426788345257
C            1.91128019945501        1.38137288777722       -1.60120077296206
C           -0.03835828629396        1.31808829605012       -0.02335469277527
C           -0.05289412263973        2.80568520130551       -0.02668040230361
C            0.39878223822702        3.53566638313841        1.06341519973070
C            0.35274358974809        4.90399273569052        0.99178530365514
C           -0.13593254469877        5.49548655168352       -0.15136145962293
N           -0.57559694817417        4.83674543837376       -1.21378519987026
C           -0.52326658618729        3.51966812816132       -1.12459138468084
C           -0.97429738456856        0.60870020700807        0.75184098648498
C           -1.98795506564406        1.35296879425186        1.55522244853348
C           -0.93604995280435       -0.77983299780084        0.78364726769436
C           -1.88720821733418       -1.53391622720041        1.64875594334745
C           -0.01231108019162       -1.46152129702343       -0.01621334173311
B            0.00007788082440       -3.02978819697485       -0.01256797215819
C           -1.34323242832194       -3.82418223209640       -0.16607897568679
C           -2.23738722637262       -3.47124613277614       -1.18271274252125
C           -1.90886749619653       -2.36484513938379       -2.12599991806501
C           -3.44603556832418       -4.14704030743280       -1.29459063253899
C           -4.43105392878519       -3.76053991265652       -2.34674905023843
C           -3.73230527851460       -5.21866639692301       -0.42882580161662
C           -5.01428380613498       -5.96189031469512       -0.56664406332742
C           -6.09068219201555       -5.70803270227939        0.27122716776547
C           -7.24204654847841       -6.42833927842914        0.08388266819582
C           -7.28398532587088       -7.36874053120977       -0.92092802852868
N           -6.27996080024381       -7.64279556017989       -1.74129413388873
C           -5.18008916535059       -6.93773247311997       -1.54470459990826
C           -2.81028376559287       -5.58735223678364        0.56811220192918
C           -3.11888991760577       -6.72993401664758        1.47690640644076
C           -1.63043670018792       -4.86929789189314        0.71873330651120
C           -0.67064012317199       -5.22552650756784        1.80208060577940
C            1.35541850767811       -3.80262024435073        0.14447258741408
C            2.24449254940319       -3.43177140533644        1.15913868919899
C            1.90051422542062       -2.32501351806600        2.09645242015797
C            3.46280980944559       -4.08945320902217        1.27399256325501
C            4.44230406960886       -3.68363994170953        2.32405566133882
C            3.76471010113817       -5.16063555750898        0.41297769515435
C            5.05766202499988       -5.88385528025383        0.55381943040009
C            6.12548418737646       -5.62726889144987       -0.29412632238990
C            7.28848684152405       -6.32734628569341       -0.10212598118785
C            7.34997071306797       -7.25104163520099        0.91708738182924
N            6.35468112765276       -7.52726724469479        1.74719651866596
C            5.24341261050497       -6.84182589592528        1.54588695044287
C            2.84832101186299       -5.54704244313888       -0.58243025052406
C            3.17384754898406       -6.68845428017245       -1.48677235004361
C            1.65801870510053       -4.84711298405710       -0.73593960341629
C            0.70398912832357       -5.22133636340287       -1.81831178723595
H            2.02555701885193       -0.99437466463602       -2.62925971972783
H            1.49920168640106       -2.50364751086811       -1.91899297140450
H            2.82861454082071       -1.61378369274723       -1.18170378725483
H            2.89530531192925        0.91422955829186       -1.55176111530676
H            2.02490427864377        2.40261808026486       -1.23705792818772
H            1.60863154506636        1.43261377316643       -2.64758946344514
H            0.77429530420042        3.02863142900389        1.93574461870175
H            0.69313300485774        5.50636863114361        1.81808827818046
H           -0.17332284840659        6.57310303263399       -0.20730289831149
H           -0.87806987860261        2.96075658530935       -1.97572983114484
H           -2.12234164471781        2.36918221741920        1.18409246836223
H           -1.68475185141311        1.41736404636348        2.60078884452451
H           -2.96273125039740        0.86620391012071        1.51036547361254
H           -2.06901463964401       -1.01386320327266        2.58957257660053
H           -1.49615047547999       -2.51734966501435        1.90329514914481
H           -2.84425586058237       -1.67430660982112        1.14511603510886
H           -0.83319974124477       -2.21649641147972       -2.20295627018169
H           -2.35297251006735       -1.42583288112918       -1.79379081653296
H           -2.27135260006224       -2.57703595887201       -3.13207534111575
H           -4.52080883314244       -2.67655142775077       -2.42447906872330
H           -5.42537074708820       -4.14833381651178       -2.12475974855307
H           -4.13268876632319       -4.15054466413836       -3.32050719379283
H           -6.01133201441182       -4.96075533602573        1.04222182774861
H           -8.10091685377081       -6.25979860335223        0.71276399954453
H           -8.19113701788751       -7.93530683104921       -1.06889029344730
H           -4.34764299987786       -7.14264211280118       -2.19875933934885
H           -3.89365251212660       -7.37370148085273        1.06009771758071
H           -3.47009737141950       -6.37225015319849        2.44545912198508
H           -2.23918566797941       -7.35338343466512        1.64001730729934
H           -1.18902290375300       -5.54103346258064        2.70763126357259
H           -0.04911847112492       -4.37491447941798        2.07546149060980
H           -0.01091629109849       -6.03444418704144        1.48663032731195
H            0.82284312569834       -2.19284498990120        2.17442237314435
H            2.32950233522539       -1.38126021652481        1.75787078561403
H            2.26784902381829       -2.52553050576965        3.10315049510570
H            4.51506891132792       -2.59808030938867        2.39779239772943
H            5.44249555631910       -4.05646781929231        2.10265934003031
H            4.15074433134344       -4.07483138675003        3.29943856043256
H            6.03084913253634       -4.89322565310808       -1.07602666825413
H            8.14130660931822       -6.15591864226332       -0.73840888013203
H            8.26638681867821       -7.80146248308533        1.06893013821735
H            4.41785758879599       -7.04853038470235        2.20808984549991
H            3.95583717197416       -7.32080912233529       -1.06596677300899
H            3.52266264046125       -6.32929058144654       -2.45565606136843
H            2.30269604078814       -7.32376504128255       -1.65002553344598
H            1.22728317699480       -5.53226532742623       -2.72263806194115
H            0.07018701238980       -4.38088653257500       -2.09489292234891
H            0.05612755792018       -6.03877638463048       -1.50022553447218
