37
 energy: -7.197533506067 gnorm: 0.000740307456 xtb: 6.5.0 (97a52f5)
C            1.51817410410641        0.42065360789153       -0.29241926572182
C            2.62620938213187       -0.15843346878107        0.52585169156906
O            3.00436326660832        0.41227641037272        1.52578602638466
C            3.25225866071902       -1.42442302553142        0.09980108685576
C            4.21052338213975       -2.01319640706729        0.91884220539478
C            4.81154201643818       -3.19594449278008        0.56604398374012
C            4.47708846781124       -3.83765656072643       -0.62758201366120
C            5.09231560952303       -5.09059541818298       -1.00605054053307
N            4.79629225271761       -5.73483741411507       -2.09967838111496
C            5.51797209017199       -6.90681744522843       -2.21939881183133
C            5.43097627829911       -7.81565536117696       -3.28475855209724
C            6.19830060973575       -8.94652658048547       -3.27383852886353
C            7.08507758276383       -9.23997596972530       -2.21027024094167
N            7.83085032486628      -10.44184555930166       -2.22448224461638
C            8.10523948907498      -11.15441404509833       -3.47261410894526
C            8.15009830309063      -11.18370541755932       -1.00677909413569
C            7.19125267631768       -8.32423822705642       -1.16263868473317
Br           8.43164579481292       -8.52776166243135        0.23803982168305
C            6.40989722630239       -7.18024087569903       -1.16799947193442
S            6.32172043458258       -5.88922576034799       -0.00890431795754
C            3.52119096662141       -3.24284010027996       -1.45165482363004
C            2.92030619623437       -2.06004223979424       -1.09686539996164
H            1.08512135258185        1.27903839287252        0.21968824544292
H            0.72314684613719       -0.30767043608871       -0.45086344102197
H            1.88295279503198        0.75807540449239       -1.26220727749895
H            4.46937896360532       -1.52242537662702        1.84137457278809
H            5.54832235921757       -3.64356227486045        1.20934901880107
H            4.75254840055826       -7.61066809370197       -4.09326569029142
H            6.10953446396843       -9.65134601875281       -4.08097726793644
H            7.25887862462841      -11.78387082226471       -3.73938293068070
H            8.98760498162291      -11.78153477128151       -3.36137318787359
H            8.29214943547045      -10.44551751434319       -4.27653623128595
H            7.46462830258946      -10.90575650506228       -0.20797193028465
H            9.16933259489144      -10.96467384261511       -0.69383528893988
H            8.05557188363906      -12.25470424165149       -1.17805727483880
H            3.25964965109499       -3.73191001905161       -2.37362384287782
H            2.18656422989979       -1.61879786795945       -1.74805780845548
