93
 energy: -18.132343507167 gnorm: 0.000701755517 xtb: 6.5.0 (97a52f5)
C            1.25113352096323       -0.78588070667253       -1.19381320605796
C            2.60289821496108       -0.56708037268763       -0.60092159572472
C            3.16062739169733        0.70650660749410       -0.57542498818567
C            2.41599100031961        1.86054746199134       -1.15350086912004
C            4.41434107198531        0.89562815263830        0.01361655857368
B            5.02786410587638        2.33841211522441        0.08481725169613
C            4.15551978521729        3.53776731578953        0.59825020575973
C            4.13500206577413        4.73015941898037       -0.13188154174764
C            4.92325743191904        4.85855038609276       -1.39040808949942
C            3.38873674837381        5.80580129119397        0.33671875178717
C            3.38220488178138        7.09876249782714       -0.40832961955904
C            2.61735134248491        5.66385528906413        1.50051335208630
C            1.84111376183507        6.73925932585956        1.95930615422685
N            1.19987848900002        7.63020411854336        2.34015609037652
C            2.61876954691881        4.45328240653886        2.21044964060094
C            1.79384644836534        4.31421042633040        3.44618886187269
C            3.41395763573335        3.39873340184674        1.77536037234438
C            3.45744270144785        2.12637877262449        2.54988041351216
C            6.50828634721017        2.57756017592872       -0.34521146366897
C            7.35987607426018        3.31355400852059        0.49374915726623
C            6.86038207644620        3.86538354015829        1.78469923192863
C            8.66889759446083        3.53844076047489        0.10333475963216
C            9.60341916854156        4.33125433847455        0.94840836731365
C            9.14535347964187        2.98672560426671       -1.10146197965502
N           10.52300579495941        3.19588700401361       -1.49192649601001
C           11.52756160971076        2.31847751394833       -1.06352800555991
C           11.23040569075934        1.21406060895290       -0.26216246195747
C           12.21641922351890        0.35676025368243        0.15190417622110
C           13.53542180602892        0.57988673929719       -0.22478183030667
C           13.85467634318824        1.65479050161351       -1.01096769597176
C           12.86734487288461        2.54827529069481       -1.45093581848894
O           13.22784545581329        3.61637896335795       -2.24367685326830
C           12.23207361077558        4.47347749209689       -2.65969882152676
C           12.56371865326886        5.57257752385792       -3.46515800707914
C           11.60338744356664        6.44862351470782       -3.89608395702379
C           10.27387170445308        6.25874171115728       -3.53867794800973
C            9.92019369194373        5.19260144944507       -2.75316468177849
C           10.87853450807220        4.28373714309460       -2.29971631364983
C            8.28973193314901        2.23205301351912       -1.92682062258364
C            8.82787960088386        1.66887288763060       -3.19544340440468
C            6.96698987701309        2.04825860587940       -1.56184739787880
C            6.04837070512753        1.27860686094650       -2.44724217140664
C            5.13092434709179       -0.17900402625556        0.54954453348881
C            6.45990216462905        0.04201971487388        1.18704687655073
C            4.60097692145590       -1.46198206861010        0.46671101979579
C            5.36326324938962       -2.62793611146603        1.00147247762629
C            3.32946543311946       -1.65572212614887       -0.09462402567161
C            2.78185653373498       -2.94651887181363       -0.15202953739076
N            2.32828855493651       -4.01495778873035       -0.19794004183756
H            0.55043413953314       -0.01434015170731       -0.87364911179769
H            0.83413179510323       -1.74532442439761       -0.88845987740456
H            1.29859336337257       -0.77630976189716       -2.28304808762799
H            1.88348599137785        1.57686127074157       -2.06140957277332
H            3.09008494540017        2.67137369838836       -1.42332203992990
H            1.69035050599125        2.25180624192315       -0.43983177502754
H            5.89538385175769        5.31168244761012       -1.19498969254729
H            4.40365533412185        5.47053260573745       -2.12743200550643
H            5.09324076700302        3.88759155273155       -1.85151496546870
H            2.77004544731593        7.02663995841598       -1.30755622251304
H            4.39117299718291        7.38894842235576       -0.70222601382020
H            2.98007765622108        7.90721572035791        0.20143658578009
H            1.02556903967167        5.08515978454959        3.49972142352309
H            2.41375237905572        4.40123183502962        4.33890839828021
H            1.28471823345791        3.35049460439600        3.47410582445356
H            2.62034122347569        1.48030896030663        2.28358776272210
H            3.41835892289185        2.31104941915617        3.62344882696550
H            4.37743231655588        1.57745870450345        2.35780207785440
H            6.02672137831559        3.28043362292666        2.16887656606273
H            6.51986485373840        4.89386336531128        1.66125208313763
H            7.63533067404199        3.85319364129988        2.55107255872584
H            9.13990828454815        5.25873484011811        1.28581577273759
H           10.50202664869642        4.59908753020323        0.39233950110720
H            9.91474829241855        3.76203126637078        1.82473842367982
H           10.20858557657657        1.04378506149838        0.02698747570155
H           11.97007160330935       -0.49137818013877        0.76934253171360
H           14.30788667158072       -0.09643209276788        0.10283108904389
H           14.87258322172495        1.83449506277645       -1.30793799141479
H           13.59500842945763        5.71174647847816       -3.73663892214125
H           11.87775265476563        7.28832394399519       -4.51340264723999
H            9.52150991696958        6.95101756316913       -3.87922755000132
H            8.89224674188598        5.04351690530811       -2.47415913890771
H            9.91552113041089        1.73837427369777       -3.22441983260588
H            8.44080916532574        2.21169551033852       -4.05827466560544
H            8.56380496760201        0.61632668291510       -3.30226984709356
H            6.25947425500600        1.46561117792161       -3.50010367661429
H            5.00985639288161        1.55761000964049       -2.27840218228964
H            6.14179203241187        0.20738492333907       -2.26649100933734
H            6.54924818680073        1.05569163305656        1.57328765914858
H            7.26609995360507       -0.11530672605823        0.46984653201437
H            6.61603627721417       -0.63048103764266        2.03056733238095
H            6.41638386913273       -2.57101742434948        0.72515802830471
H            4.97881249860142       -3.56826523604535        0.60719196819294
H            5.29437679872841       -2.67130581991086        2.08875959831604
