52
 energy: -10.203671266867 gnorm: 0.000949951476 xtb: 6.5.0 (97a52f5)
C            1.03165673882524        0.15544103769879        1.56583594502529
C            2.08828917205505       -0.28596470736814        0.60426522807004
C            2.26652790116727        0.40026284011784       -0.59818191405536
C            1.39291231921949        1.56951283087980       -0.92210946758133
C            3.28321633190056        0.01777985940046       -1.47813003738976
C            3.55905720869832        0.87257820258626       -2.67048960182711
C            4.05736819597454       -1.11428896347692       -1.20570893648816
C            3.90861608276632       -1.77153386076830        0.02301742813086
C            2.90363100879207       -1.37786441252326        0.90920361895770
C            2.71632219177297       -2.09563200812226        2.20569843425589
C            4.87122627360204       -2.83962312782499        0.47167959629195
O            4.24892943550707       -4.10073993267816        0.76331962972132
C            5.02817306542667       -5.22431812240003        0.38591890771297
C            5.72352584161736       -5.96579646092679        1.34473761670826
C            6.48833407570719       -7.04749432638561        0.98005755512149
C            6.57648990906883       -7.42013158664046       -0.34880557281084
C            5.89242608290988       -6.70975810897681       -1.31196864468179
C            5.11288541305507       -5.61451800931569       -0.96845750503373
C            4.39582397819107       -4.88170898823079       -1.92428303869494
C            3.75137709435060       -4.16466600754363       -2.67532664851878
C            3.00670475508474       -3.33258836491414       -3.52338755289109
C            1.77103929065447       -3.78940908638017       -3.96603228601024
C            1.01568679451136       -3.06497294400464       -4.86126133193662
C            1.49696920314314       -1.86850944136124       -5.35296067150604
C            2.71407360073048       -1.39426592928534       -4.92995798816437
C            3.48501203023489       -2.08284425051514       -3.98449742997482
O            4.69452764526525       -1.47163318274320       -3.59226232176897
C            5.07427089907253       -1.58766515511178       -2.21286224088872
H            0.88660800223269        1.23546484837502        1.53261991750493
H            1.29600077181038       -0.08527934529418        2.59562005001053
H            0.07763746848212       -0.32301543867087        1.34073557940762
H            0.36736485367062        1.40062168269192       -0.59205120604647
H            1.34332352127506        1.75555747604664       -1.99446114983313
H            1.76236504556002        2.47606750671766       -0.44108666452254
H            2.75168984739244        0.79936617486629       -3.39870940460955
H            4.48337095192297        0.58398737990420       -3.16893814362129
H            3.66463513361307        1.91977431722907       -2.38332169139153
H            3.16280619137252       -3.08809249759309        2.18507830755465
H            1.65868713331339       -2.23708159780127        2.42899520369703
H            3.17105219966594       -1.54178690601776        3.02742633348363
H            5.37512807352796       -2.51186939278705        1.38786206363047
H            5.67122699038794       -3.00628804150192       -0.25226771214974
H            5.65098101953058       -5.66693400168273        2.37533533955367
H            7.02213338559848       -7.60654538660532        1.73120607362298
H            7.17828940462121       -8.26849200640447       -0.63114857365359
H            5.95519862734696       -6.99995478646726       -2.34695613848496
H            1.41189243802333       -4.73836331241333       -3.60467437808420
H            0.05916484386398       -3.43808197737646       -5.18907475526826
H            0.91847282148543       -1.30774311407271       -6.06894014091598
H            3.09889525040410       -0.46923404141205       -5.32117735218339
H            5.99958192537544       -1.01507699621888       -2.08847984937176
H            5.34214156020460       -2.63276833669373       -2.05910247810730
