49
 energy: -8.772477568306 gnorm: 0.000840426680 xtb: 6.5.0 (97a52f5)
C            1.21599286471376       -0.31474950789616        0.52245587623646
C            2.67403185709042       -0.36167784523126        0.28774471356688
C            3.41958313813120       -1.46924741235363       -0.00847755640358
C            2.94406710535435       -2.86125841773452       -0.12436930011036
N            4.75275110777046       -1.07225689331898       -0.14041328710682
C            6.04760656217577       -1.52770295618623       -0.39596965277346
C            6.40175201805234       -2.94206243451499       -0.68542541015876
O            7.66927981659517       -3.31976385488820       -0.19435444676321
C            7.72193474903637       -4.67309692268846       -0.05506098938611
O            6.80271897003706       -5.42720088294129       -0.28493593792881
C            9.02888185342092       -5.22856899908764        0.43800484586589
N            9.10697300864302       -6.64324892313824        0.18453429933566
C           10.29411291193727       -7.34457419526180        0.27009074508275
O           11.32295395697348       -6.77273687371030        0.58395228233699
O           10.20077442613602       -8.67911486458936       -0.02149492610198
C           11.45212331508027       -9.41246315751948        0.06077114996260
C           12.46031585282565       -8.84333112228675       -0.94663668160405
C           12.00746841826401       -9.34437222204935        1.48980069642977
C           11.14125323502865      -10.87400263685205       -0.29740535393342
C            6.89802947164026       -0.46101349536426       -0.36852234037444
C            8.34912328977370       -0.49179945648213       -0.63222586767059
C            6.15230243131134        0.75291107439201       -0.08364857696059
O            6.60500503089341        1.88482250543781        0.00496304018462
N            4.81981237691666        0.34889519964627        0.06056258752770
C            3.52795143278387        0.81359678402422        0.32978600618786
O            3.17949106310753        1.96295822371070        0.55680572246576
H            0.92280798240389       -1.01546439326448        1.30462934204158
H            0.66704983353993       -0.56250827051857       -0.38635101017950
H            0.91409608977927        0.68532767169238        0.83585891737901
H            1.86361020203988       -2.90043075200127       -0.26171409376490
H            3.19107385282691       -3.42951142102345        0.77255702441393
H            3.40284318159806       -3.35656116529001       -0.97999517071569
H            6.39317647690380       -3.13110918526797       -1.76548505369466
H            5.66470112311267       -3.60769517441416       -0.22322833516768
H            9.13672918815027       -5.05273088605915        1.51196939105284
H            9.86543423897425       -4.73353883533687       -0.06259240603217
H            8.23838941168690       -7.08640324585676       -0.11984284182558
H           12.68875137043883       -7.80574788552089       -0.70953262737906
H           12.04675376958100       -8.87239130985792       -1.95299813905840
H           13.39012987888257       -9.40991785423455       -0.93798251813180
H           12.23284740431701       -8.31433900895469        1.76047125565927
H           12.91878907036275       -9.93220703941353        1.58776078874817
H           11.27357050764123       -9.72269790105221        2.19896784350465
H           10.71931903331753      -10.93467238024685       -1.29890687800121
H           10.40870024316514      -11.28397523795940        0.39545023274884
H           12.03721706384293      -11.49181679547381       -0.26058314712832
H            8.80655841881640       -1.36505859353962       -0.16531568813857
H            8.83028693879116        0.40237587956080       -0.23388198416435
H            8.54658445649244       -0.53611692864470       -1.70374654071741
