39
 energy: -7.672212262537 gnorm: 0.000930953877 xtb: 6.5.0 (97a52f5)
C            1.10360897625171       -0.17125297613205        0.59616776948598
C            2.56259118749220       -0.23962497869270        0.37242332490360
C            3.28008496188811       -1.32801234832104       -0.04217471439180
C            2.76149809571127       -2.68029641494742       -0.32329673045611
N            4.62658457676871       -0.96035914632235       -0.11742864884665
C            5.91556948209362       -1.41570238623480       -0.40530880014880
C            6.25304029346364       -2.80575955143646       -0.81125320172363
O            7.51583512368477       -3.23241233641663       -0.35378290524733
C            7.62798808145128       -4.58493205350298       -0.51009052500720
O            6.74635284161076       -5.28630734335910       -0.96692385440193
C            8.91248762831537       -5.19325783732406       -0.08411674555948
C            9.84805700955977       -4.44933279522482        0.61733293700721
C           11.03825086414795       -5.01754213345379        1.00890276441517
C           11.31568358813093       -6.33945061584266        0.70758443797315
F           12.48632099286563       -6.89784043029654        1.09297048256057
C           10.38227637478369       -7.08508233193212        0.00909084861638
C            9.19167755572230       -6.51756241263225       -0.38209122444253
C            6.78641886124076       -0.37247600929777       -0.27569273683324
C            8.25017392449065       -0.42023914362195       -0.45620310369008
C            6.06771509795969        0.81455407782670        0.14979451432010
O            6.54351113219728        1.91763034834980        0.37237480746531
N            4.72812271212069        0.42493335962478        0.24685054094903
C            3.44863397486338        0.89653872548197        0.55362423544669
O            3.13144837436764        2.02325442596415        0.90397805513802
H            0.76709803917044       -0.98578097787681        1.23818415627229
H            0.56256946530569       -0.22795198889855       -0.34880520091708
H            0.83862571183884        0.77009793613389        1.07959388163262
H            1.70190282472677       -2.65104449967323       -0.57758785630859
H            2.88451969358667       -3.32907095430871        0.54431694222901
H            3.28820470393791       -3.12975496197283       -1.16497383813358
H            6.24604322496118       -2.90391604108115       -1.90363431605474
H            5.51370326023940       -3.50603879576665       -0.40728366338530
H            9.62531412612199       -3.42235322677328        0.85216202862585
H           11.77039702066127       -4.44794391246703        1.55439122441853
H           10.60749184438389       -8.11237824986529       -0.21891154545933
H            8.45841652838446       -7.09182825130406       -0.92353118061493
H            8.52886516176476       -1.19875178815497       -1.16735762483891
H            8.74382040327043       -0.63473568394946        0.49188820958320
H            8.62297628025935        0.53571370384920       -0.82589274466102
