40
 energy: -7.846016357285 gnorm: 0.000806508867 xtb: 6.5.0 (97a52f5)
C            1.03981177892104        0.05232110072835        0.09471895082929
C            2.50851760735379       -0.10488232608470        0.13344585233432
C            3.21042830967051       -1.26405761094094       -0.04836818332420
C            2.64930808474975       -2.60675458434323       -0.28687296183090
N            4.57183349053259       -0.97587462369526        0.08691593440600
C            5.85565818505619       -1.52526818961414        0.05804775481779
C            6.15308549340071       -2.95971219141115       -0.21084789308461
O            7.50792657378174       -3.30204983669448       -0.02437203569570
C            7.66247340274894       -4.65785755873113       -0.04272971787170
O            6.72817294324175       -5.42673516184131       -0.18052270403938
C            9.03321715460285       -5.20724941797226        0.08114643335857
C            9.25658087295602       -6.50183340859444       -0.36222376686699
C           10.50159371905783       -7.07815137356204       -0.29003084569315
C           11.55924837783487       -6.36332318264492        0.23833781090908
C           11.36647557032607       -5.08423203220059        0.69423115851248
C           10.10709027613964       -4.47242597851661        0.63453997681464
O            9.93839981492345       -3.19752604217143        1.12110049487511
C            6.75829538873178       -0.52981891482187        0.30103899779874
C            8.22578000340141       -0.66514478016115        0.33599180413042
C            6.06244274246920        0.73089105277388        0.48743268889829
O            6.56945386528450        1.81977428451658        0.71251116981736
N            4.70327262946130        0.42922855267605        0.35372744206837
C            3.42445613944570        0.99423443724099        0.38411401475373
O            3.12709611562464        2.16268440614043        0.58375358911769
H            0.56098279878012       -0.57168522050649        0.84929390404029
H            0.64335359618360       -0.22322046173965       -0.88246308013673
H            0.76349802121995        1.08922023609984        0.28937756718125
H            1.80135649518303       -2.56102712871511       -0.97003661850929
H            2.31071110891052       -3.05503985606694        0.64729169350887
H            3.39388351955356       -3.26756353059253       -0.72850838061046
H            5.89163848829051       -3.21806580856012       -1.24364391194927
H            5.56082370115811       -3.59829485355654        0.45416194272315
H            8.42516676813858       -7.05204998065111       -0.77025925910001
H           10.65296185854145       -8.08466336105692       -0.64452671694817
H           12.53695123234830       -6.81374494255179        0.29390177886232
H           12.19369538977767       -4.53618056464364        1.10831521791354
H           10.77305445799739       -2.86722895562401        1.50451449216668
H            8.50730811247730       -1.63350991470702        0.75308747334069
H            8.67045352268812        0.12052943129595        0.94732326414670
H            8.64342238900389       -0.59723170848341       -0.66852533173216
