53
 energy: -11.149264737552 gnorm: 0.000846413081 xtb: 6.5.0 (97a52f5)
C            1.57859499011518       -0.90500161044252        1.75839989936253
C            1.17595500998512        0.05934810384737        0.71260239997781
C            1.99796648499851        0.96235540648126        0.02463389243408
C            3.43209445580876        1.17390393880712        0.13887785862780
N            4.44081683838055        0.27551948042909        0.14530654108861
C            5.70713949143612        0.87361515299376        0.08653466297589
C            6.88724686213802        0.20914584765385       -0.06747744063410
C            6.85442442766068       -1.18951684034304       -0.22654330244588
C            7.89124469160846       -2.10910400767004       -0.47932544734748
C            9.33549262794453       -1.80040820934890       -0.58051783322650
C            7.29088471908877       -3.40018487706339       -0.55676994807811
C            7.81681631607880       -4.68517596102369       -0.76204465526794
C            6.95813408544284       -5.75735630404580       -0.77248142098143
C            5.57896817012145       -5.59108069444165       -0.58208160468323
C            5.03561891374632       -4.34662388324870       -0.37841463310195
C            5.88986205038084       -3.24630208696851       -0.36754632654175
N            5.67524888254280       -1.90331440818995       -0.18088035553979
B            4.34858872705637       -1.26205165628989        0.25622902683051
F            3.32848345867459       -1.73486015394435       -0.55575928679077
F            4.15825159333144       -1.60177050906836        1.58936779028560
C            5.45918824925297        2.30685605743068        0.08618387061893
C            6.30929056262862        3.40480760116375        0.05994674094405
C            5.75657620107117        4.66884204652237        0.05326719544667
C            4.37652390730264        4.84688398851186        0.07104714099798
C            3.52328136779465        3.76525735042275        0.09219107315840
C            4.06468942948221        2.48283156765032        0.09549634956759
N            1.19757024425793        1.71606292364119       -0.82111700163081
C           -0.11202455154546        1.29147603287024       -0.71740877811221
C           -1.28072340236114        1.71050898999809       -1.35911659820749
C           -2.46172734811745        1.08904497370182       -1.04239367251791
C           -2.50587189010185        0.05366002046964       -0.09686110047072
C           -1.37167408269344       -0.37094720125970        0.54422330675571
C           -0.14876591468102        0.25211058470704        0.23790587015622
H            1.92385447114906       -1.83511385475071        1.30697108729176
H            0.74960173522581       -1.13596668511589        2.42727622849984
H            2.39420462461110       -0.50440154440671        2.36046405157112
H            7.81480429991973        0.74486064271350       -0.13667941461783
H            9.49650160824464       -0.83787744383239       -1.06650407950307
H            9.85838853021691       -2.55762161095984       -1.16489879062886
H            9.79294016239733       -1.76107708035982        0.40840218703806
H            8.87479122912222       -4.81584765956032       -0.90367081639862
H            7.35124756880512       -6.74814944906604       -0.92935226408293
H            4.93552395792327       -6.45525734054270       -0.59563373950640
H            3.98029458436749       -4.20033634942669       -0.23416836603544
H            7.37505442022691        3.26082399629516        0.04699774608913
H            6.40291943533450        5.53079116911682        0.03467920362277
H            3.96961444285740        5.84462654480817        0.06797833935409
H            2.45660327126182        3.89520631348933        0.11451813177132
H            1.53017914735806        2.42139384616958       -1.47646806915146
H           -1.23816062585923        2.50509987757209       -2.08227784389848
H           -3.37209085186518        1.40027643065439       -1.52774420225636
H           -3.44991832680315       -0.41449271678243        0.12800123188051
H           -1.40337925333169       -1.16660874995195        1.26699516531512
