37
 energy: -7.196054301741 gnorm: 0.000532097528 xtb: 6.5.0 (97a52f5)
C            1.53214700951139        0.24576126426332        0.56010524295412
C            2.48317241359415       -0.22775044339085       -0.49019418000390
O            2.79409126297002       -1.39763357373644       -0.54398019589147
C            3.03376197606584        0.74154698072765       -1.45598163263573
C            3.93233986219087        0.29707533276921       -2.42079723791735
C            4.46987685646587        1.16408401692288       -3.33945198872278
C            4.12789991308915        2.51734280715317       -3.32752052989403
C            4.68803967395054        3.44533898074137       -4.28473350400686
N            4.41661674670743        4.71962925994208       -4.29218795424615
C            5.08301912026921        5.38480980069817       -5.30340915477831
C            5.00160717648907        6.76077512625958       -5.55605604883194
C            5.70951338805320        7.29691910901828       -6.59290017852152
C            6.52614113299635        6.50718969002708       -7.43377547117602
N            7.20644352700425        7.12750654325912       -8.50987261581347
C            7.51432923076668        8.55741305188553       -8.49705111438624
C            7.43914889668163        6.45876832784443       -9.78882949501083
C            6.63606125848994        5.13136792155217       -7.17458857871942
Cl           7.71742340689621        4.06968346583336       -8.06235595121519
C            5.90422879723482        4.59173944490740       -6.11980155390003
S            5.81222322762769        2.94851825753003       -5.55856833606566
C            3.22584114695610        2.96196826103664       -2.36051904391370
C            2.68806931113298        2.09305404866188       -1.44320485307133
H            1.24530798138439       -0.58468188473127        1.20401487520256
H            0.62471647450499        0.65132166907938        0.11333183853372
H            1.98736203738592        1.01241539821599        1.18673232885811
H            4.19843288807499       -0.74603460310928       -2.43226380807514
H            5.16433735906342        0.80843478923257       -4.07997263655466
H            4.37617802872857        7.37226623446463       -4.93059668118314
H            5.62493992647289        8.34929242031511       -6.79697871368992
H            6.65231733571100        9.12964768476205       -8.83488361592740
H            8.35411580849174        8.76751162140404       -9.15696783044472
H            7.78514056926599        8.87449157372490       -7.49157067924603
H            6.75363196122010        5.62146584665135       -9.90157733789812
H            8.46057538357952        6.08605245685660       -9.83013789532113
H            7.27784497340655        7.14789701312802      -10.61548538717542
H            2.95740309568446        4.00383721900664       -2.34706513265950
H            1.99155084188589        2.45779488709711       -0.70903494865294
