70
 energy: -14.219456620203 gnorm: 0.000698793227 xtb: 6.5.0 (97a52f5)
C            1.33867351459150       -0.24022062415367        1.48346038872297
C            2.71925839221626       -0.29486826066321        0.96730530154981
C            3.48613686706547       -1.41716594119888        0.84284392845221
C            3.12223807715182       -2.80244702402670        1.22660363769406
O            1.91632736562548       -3.25515018243634        0.65371124328783
C            1.45351684546694       -4.34352894691507        1.33812887949711
O            1.94592446190310       -4.77705241790224        2.35697316011556
C            0.25995618276602       -5.02458430845971        0.72911559041732
C            0.52206348579368       -6.45845870697481        0.37803707992871
C           -0.27797872218386       -7.43691540570271        0.90236019936856
C           -0.08272394061121       -8.78701989836857        0.59490391740315
C            0.91859278846875       -9.16351396425871       -0.24247169353082
C            1.77768731490293       -8.19862537012210       -0.80939274785110
C            2.83890574717045       -8.57130795590469       -1.66458599693835
C            3.68038056359580       -7.63355581466961       -2.17543575359325
C            3.50072985290602       -6.28262372235852       -1.86402394125848
C            2.47821468969674       -5.88770783143316       -1.05952206804687
C            1.58366038639432       -6.83009097746168       -0.50026572983246
N            4.72541485300121       -1.04348321933092        0.34411580584797
C            5.94787755432992       -1.58105696292562       -0.07952463391246
O            6.15334504760824       -2.94746882454903       -0.09725866052621
C            7.12557661878506       -3.37498920430936       -1.04605844032092
C            6.88127126600305       -4.79006770440627       -1.49657705742595
O            6.21418988593863       -4.99723634585307       -2.47358333171543
C            7.43995777489710       -5.92049548534204       -0.68359531294755
C            6.38067659381822       -6.63341904965418        0.10559120472579
C            5.47633152521878       -5.87741190426511        0.79677433487828
C            4.43555539289135       -6.45294680959577        1.52824174368474
C            4.30762738334657       -7.80272428334249        1.58705852584196
C            5.22142786909814       -8.63764732470271        0.91067684514762
C            5.09233757607975      -10.04370481231867        0.95513862292829
C            5.97167842200588      -10.84340296621471        0.29542764766233
C            7.02208904756435      -10.27994419645353       -0.43521602852298
C            7.17441600335639       -8.92891571561673       -0.50050176708581
C            6.27640118145085       -8.05749147985915        0.16214567766624
C            6.74977170694715       -0.50285075366812       -0.44164700678241
C            8.16375667922792       -0.52748904505477       -0.86369473966393
C            6.01419999473298        0.72991028646952       -0.30196486400095
O            6.42773939996059        1.85811050358486       -0.54195091653320
N            4.74095590149046        0.37477235236185        0.16929611478488
C            3.48775046963250        0.86593958914838        0.55115683414843
O            3.10828816601077        2.03032737264195        0.54510740820582
H            1.32664832411987       -0.33920635972765        2.56897463546219
H            0.73864093645141       -1.04675798875472        1.06074402677959
H            0.86869144452139        0.70877003927139        1.22340631978265
H            3.03388627453415       -2.88234302175946        2.31615934395482
H            3.91124738272771       -3.48675661617048        0.90120550372209
H           -0.04610619953413       -4.47811303863573       -0.16731868990490
H           -0.57587733029874       -4.95531317817253        1.43017252823285
H           -1.07810931597462       -7.15972505695223        1.56694068082051
H           -0.73282340180903       -9.53055525906623        1.02609764881978
H            1.07062782383790      -10.20254937093018       -0.47810197138104
H            2.98327049952908       -9.61268392913805       -1.89423795782824
H            4.50087418562679       -7.92923671279978       -2.80846107881510
H            4.22119654427188       -5.56310544635941       -2.21726210135001
H            2.37430024282181       -4.84985947039742       -0.79828716430025
H            8.11909360141939       -3.27155457354291       -0.60059974657037
H            7.05864194920200       -2.71870546263435       -1.91858049406610
H            8.20945395732619       -5.54812615015419       -0.00076279952141
H            7.94165428093725       -6.60450986133605       -1.36992393924679
H            5.56340422462291       -4.80673706613664        0.73631087949981
H            3.69500031467726       -5.82374234732413        1.99480999263785
H            3.49406072255402       -8.24768496796710        2.13331378223765
H            4.28460068808989      -10.47543353424440        1.52039896547917
H            5.86342530600306      -11.91480223959160        0.33639684767419
H            7.71666259996049      -10.92502924510782       -0.94812822073733
H            7.99776887592960       -8.52455045757793       -1.05983583440988
H            8.76130546772493       -1.15290875336742       -0.20053764258357
H            8.58223298802789        0.47932672963191       -0.83224356971411
H            8.26921742069467       -0.89268332872178       -1.88497334452774
