58
 energy: -11.439179761088 gnorm: 0.000759883353 xtb: 6.5.0 (97a52f5)
C            1.23198026723954       -0.10893148708802        0.45193734177395
C            2.61829876414138       -0.38878562679044        0.03311975277879
C            3.40683073928719       -1.40764131751888        0.48429373872219
C            3.07601828218988       -2.45513555591507        1.48045323848515
O            1.78844605297018       -3.00186787203505        1.31883876827213
C            1.69699307313125       -4.16511200781165        2.02237126670630
O            2.60133135547820       -4.64871483740040        2.66828315524590
C            0.38309469655133       -4.88664898376682        1.91539652234763
C            0.30377617843574       -5.71487275684209        0.67177709928559
C           -0.16634401585122       -7.01844282777150        0.70556568911166
C           -0.24702338816036       -7.76569478450029       -0.45075382159545
C            0.13614923782574       -7.21780495920323       -1.65638095765934
C            0.60268358579940       -5.92165250060479       -1.70403236156897
C            0.68452761750675       -5.17771710393493       -0.54667311878667
N            4.64555983011852       -1.29752611906587       -0.12583179496064
C            5.89305834142105       -1.92964771506851       -0.17012382484156
O            6.09275241993023       -3.06360503505840        0.58686925919957
C            7.35746958709884       -3.68903035021178        0.41196059430299
C            7.45029493596355       -5.02370320405925        1.10294665981428
O            8.48566256470559       -5.63446900447262        1.09912413215714
C            6.22518998974255       -5.59177406229555        1.75232101662785
C            5.51436773618341       -6.56977500602225        0.86789478878264
C            4.13089977663252       -6.61021647191283        0.81857656111466
C            3.48197056583105       -7.51373282910293        0.00606160565408
C            4.20673645996525       -8.40003646427676       -0.75991120719880
C            5.58405361644273       -8.38114919621116       -0.71014457454749
C            6.23084707278937       -7.47193450477843        0.09953202713955
C            6.67664603822317       -1.18524817661260       -1.04733219170845
C            8.08042376989258       -1.40689544781660       -1.44679928194245
C            5.91344264471336       -0.07774681174568       -1.57138285265933
O            6.30916355855115        0.77084287417699       -2.36158741715273
N            4.63927123573731       -0.16371309713206       -0.99037101064240
C            3.37386696706573        0.42760689877975       -0.90256652522617
O            2.97507141947441        1.42693923888759       -1.48685061710890
H            1.21712670651570        0.48460450624482        1.36623612968838
H            0.69115806918808       -1.03738824670508        0.63927631111213
H            0.70214850978541        0.44596456278353       -0.32283972029374
H            3.14952054282847       -2.06120959265423        2.50104401031465
H            3.79632201820789       -3.27575325826700        1.38492957422678
H           -0.43112900924797       -4.15715142045806        1.92313881659883
H            0.25306404749389       -5.51599827440421        2.79959870689777
H           -0.47010032775948       -7.44558700495908        1.64576966516484
H           -0.61436653056249       -8.77820770430662       -0.41210072412242
H            0.07041189658749       -7.80130559308089       -2.56009472675893
H            0.90554863162697       -5.49081190358935       -2.64429189775304
H            1.06091921616285       -4.16969065534104       -0.57269721841458
H            8.12660113469047       -3.02013827746574        0.80750638935557
H            7.52351711161028       -3.83207915103037       -0.65867966953126
H            5.55037418087277       -4.77589173859556        2.02752547031354
H            6.51318581811900       -6.08605248827979        2.68467293008902
H            3.56362437790859       -5.92868905806622        1.42944581562104
H            2.40619479253160       -7.51717657640320       -0.03837216878708
H            3.69824092990221       -9.10564154503072       -1.39627300766198
H            6.15509113266505       -9.07447618215757       -1.30575390707648
H            7.30637059688149       -7.44484252019120        0.13986731189491
H            8.73732032034386       -1.46727672022291       -0.57964368178956
H            8.42880181243760       -0.57597338060470       -2.06185648050918
H            8.18654304449456       -2.31588067189745       -2.03863958867609
