52
 energy: -6.131313151718 gnorm: 0.005556997001 xtb: 6.5.0 (97a52f5)
C            1.23354041459853        0.93406433268749        0.88026316440599
C            1.18245782709006       -0.46720112547813        0.73786581424274
C            1.87037741138767       -1.15175532666542       -0.16607223362595
C            1.83351748132621       -2.52958102176661       -0.37722087446313
O            0.60592880502236       -3.03209516854620       -0.67502468660147
C            0.24694004944245       -3.97043765838966        0.25639402126835
O            0.97159635682366       -4.34314826468788        1.15962265830500
C           -1.08366454954183       -4.51747941476259        0.12039987624373
C           -1.61086909453215       -5.43715675143990        0.90079008878011
C           -2.83572891453843       -5.92376670927835        0.86124630822976
C           -3.83583120342542       -5.58461802983064        0.06114036470148
C           -4.33447363175305       -4.72231176521455       -0.94331366964691
C           -0.77741400969940       -2.37505934073654       -3.39783038785513
N            5.50062117356928       -0.59013331907376       -3.93528549787429
C            6.95814364702178       -3.29703297075992        1.94857185956931
O            6.35056860424739       -4.19307742358624        1.50422226162917
C            6.29704907915149       -5.09646020400554        0.67037240554195
C            5.11719980534919       -5.87477696309474        0.76097429772552
O            4.97396059843967       -6.70063179448373       -0.22199566872027
C            8.70991837718020       -5.87240761670124       -1.63322225163031
C            8.24031406380659       -9.24969559258932       -0.16961879933206
C            9.29759845382017       -8.88611165838351       -0.85407505170555
C           10.37265931000693       -8.20378732317796       -0.31946983875761
C           10.48408346723520       -7.82738553964991        0.97538321297905
C            9.96021825240031       -7.77501786430302        2.28663819952549
C            8.87884091344330        0.77368964632905       -0.76204065134921
C            9.80165210947362        0.78483151209204        0.07584849977904
C            5.63076855353447        2.80799594687686        0.68971132378427
O            6.67892710739845        3.54500928472964        0.45479517644963
N            4.32416647493638        3.07011316934562        0.79839303206645
C            3.47084707088236        2.30545493111824        1.00640536614524
O            4.24327126333058        5.29590490656655        0.49882673592045
H            0.54730174453801       -1.08337501969864        1.37313571058684
H           -1.26079085763317        2.40390816291573       -4.22613653521148
H            2.22235713023000        1.30484950729642        0.96498997621047
H            1.87418038714336       -3.65025925335355        2.84621582982070
H            1.89562630515482       -4.22209431061130       -2.13073981715561
H            1.08437398329774       -6.25164835216504        2.03203639387733
H           -4.06396916994666       -7.09987074040724        2.67330045274989
H           -6.50555588373336       -3.74591702194904       -1.25417178041896
H           -4.54382672908852       -0.13213141333625       -2.89182112366109
H           -0.20132141534832       -2.03888974225243       -2.62131146817885
H            6.56554350302600       -1.80634027275929        2.32469458328028
H            7.52024885055657       -5.36302817335249       -0.38819883924123
H            8.11586358271851       -6.15054521559594       -3.29824314853391
H            9.31588885249575       -9.12148238802416       -1.90823565057652
H           11.18292839968118       -7.93204424620781       -0.97913530382555
H           11.52017276446036       -6.10492595754034        3.15801376853452
H            8.49519578602280       -3.19474658336572        2.30448417592876
H            9.90810559995325       -4.53855125702558       -1.58921218763791
H           10.11297459416883        0.96274638654546        2.54690902278813
H           10.07798733621324        0.48361101314799       -4.00771910802306
