52
 energy: -8.750142490992 gnorm: 0.003027620677 xtb: 6.5.0 (97a52f5)
C            1.30910979359331        0.04534096658284        0.66562540981942
C            2.74504835255067       -0.12698959935921        0.37638330651772
C            3.34540405485331       -1.26972142916064       -0.06885056552562
C            2.72157958463396       -2.58817098737246       -0.34419080144911
O            1.71155876139162       -2.92382306727304        0.57983174896414
C            1.40764714773512       -4.25352636321333        0.47712138453909
O            1.96332546800770       -5.00858264933969       -0.29781023468853
C            0.37131240807828       -4.74005741957028        1.35305908496618
C           -0.07205469986289       -6.00793265891613        1.37993192235321
C           -1.07284358983407       -6.46318167900619        2.21458436419295
C           -1.74378474654828       -5.70189896828789        3.10918417434797
C           -1.96582197142971       -4.43530477485420        3.68947807568059
C            5.65241265238274        0.40679785287734       -3.75623138263148
Br           4.41581537827702        1.37728365632635       -3.04961437808277
N            4.69530945992505       -1.00855537872931       -0.22939027529717
C            5.87771840763270       -1.63749936149800       -0.62995261320590
O            5.81784336411546       -2.95293473539581       -1.03147514968357
C            7.03573818513235       -3.49615427370453       -1.51605674688657
C            6.85336167507383       -4.92134457834384       -1.96833702616652
O            6.69714069500459       -5.16579388031478       -3.14017966090909
C            6.84535112703493       -5.93653163493112       -0.96410438910407
C            6.59191323367498       -7.23837956604770       -1.18277991582580
C            6.58278594777018       -8.20361920540338       -0.19537420035383
C            6.83661321029215       -7.97707659916916        1.11438187087143
C            7.18710389638370       -7.07334618875761        2.14019055871791
C            3.17195095644922       -0.92034410228644        3.93921079494647
Br           4.81733973290213       -0.62970247632973        3.51256797710574
C            6.88592535247982       -0.68556978398535       -0.50960589458804
C            8.32181424581752       -0.82133339624538       -0.81686013516273
C            6.33157720700697        0.55912614984130       -0.03393514407559
O            6.94676087397096        1.59717028649899        0.17367838711815
N            4.95608279700587        0.34417383379904        0.13024130404066
C            3.74201480850330        0.92058267651422        0.51566598867513
O            3.54765771609271        2.06675297622654        0.89817429089350
H            0.91632918279240       -0.82689453873080        1.19005708720616
H            0.74131463732193        0.17272169944598       -0.25641560127497
H            1.14826925052592        0.92508343428544        1.28929415705887
H            3.48797679697316       -3.37313426941758       -0.30111090109522
H            2.27701698416892       -2.60999056227206       -1.34688696376116
H            0.39145141420401       -6.70296596856063        0.69765446726093
H           -1.35104577286836       -7.50321284027159        2.15650380433967
H           -8.27427402661610       -3.75849884801244       -0.35191126976061
H           -2.83193815102376       -2.39778502627304       -0.40761369749163
H            7.78112568705113       -3.44748301500982       -0.71747534677233
H            7.36433012281350       -2.88835050367733       -2.36367938690325
H            6.37926673980455       -7.53158051173007       -2.19905523281016
H            6.36050680314408       -9.21991908164295       -0.47793579358345
H           11.20738642488827       -9.18937187914747        0.09604080668453
H           11.64144806164516       -5.89880345933806        2.79866367951417
H            8.78923951277601       -1.57637078085845       -0.18489822450275
H            8.83421368205413        0.12388136307224       -0.63010500973291
H            8.48547113506101       -1.07789883327749       -1.86297871024641
