52
 energy: -8.749428980867 gnorm: 0.000527788924 xtb: 6.5.0 (97a52f5)
C            1.22215330103108        0.27713283996459        0.44582024923349
C            2.67321841010679        0.08633190258427        0.26208965390995
C            3.29357640690061       -1.06597707912002       -0.12731400293907
C            2.67907898879114       -2.38336205141595       -0.42989499321031
O            1.61616439944406       -2.70558745387017        0.43706898817634
C            1.34571444430370       -4.04535006086727        0.37586490751815
O            1.96449534556649       -4.82108087878405       -0.32748784273437
C            0.26739348940747       -4.51761119986925        1.20808811892136
C           -0.13337867004240       -5.79716133701630        1.28842352895141
C           -1.17004019338551       -6.23504499910922        2.08784551354954
C           -1.91808259465272       -5.44364760367759        2.89016331074378
C           -2.20351450187773       -4.15765962670065        3.39447434127233
C            5.73675788756672       -0.48179254020706       -3.93014658546311
Cl           4.92906923589755        0.71473464726853       -3.31418575156316
N            4.65329757805363       -0.81575807583719       -0.19579661639090
C            5.85451945836195       -1.45712707477054       -0.51155978119781
O            5.81348226368100       -2.77432992682742       -0.91021539369169
C            7.03975388189096       -3.29607223164419       -1.39377208753127
C            6.86020871339658       -4.68597762858333       -1.94628425833283
O            6.73146666830300       -4.84709127603451       -3.13540729318994
C            6.82253895845656       -5.77001043660654       -1.01850566878685
C            6.59542539668954       -7.05362941721282       -1.34775633319073
C            6.56805345176182       -8.09496822487467       -0.44175286003017
C            6.77133151818601       -7.97180784389113        0.89008717745558
C            7.06824483866646       -7.14466069045496        1.99361349385487
C            3.10576917292612       -1.59400502683962        3.57534761435404
Cl           4.58643171088736       -1.17160453935805        3.27155372262300
C            6.86117645861626       -0.51393575748596       -0.32911710393758
C            8.31839442831385       -0.67879348621980       -0.49572087886008
C            6.28737579117612        0.74091757026198        0.09315509319309
O            6.89738442761709        1.77385828765725        0.33852197241733
N            4.90137233910213        0.53878138127800        0.16623225915790
C            3.66657070782597        1.12999015901322        0.45162535026262
O            3.45453752065588        2.28524275728045        0.79512960677473
H            0.76731044953292       -0.62113097856939        0.86555137525481
H            0.73777067548253        0.49308710330897       -0.50672258804433
H            1.02843311883973        1.10979029720685        1.12293171669591
H            3.43751033045879       -3.17108401636864       -0.33395027491463
H            2.29513687982266       -2.41010628904176       -1.45682065765601
H            0.39776917331513       -6.51533579558345        0.68385321978208
H           -1.41214329036463       -7.28552976641310        2.07928952205507
H           -6.36119200747159       -4.32762291808854        1.44657759010348
H           -2.99281919485520       -2.03268538673157       -0.74249532082098
H            7.76198453540597       -3.30513047514914       -0.57221883936542
H            7.39829468482914       -2.63754253408037       -2.19039145128407
H            6.42599097443144       -7.26817875697392       -2.39114821304440
H            6.37238295479467       -9.08806085658347       -0.81306530261376
H           11.14374769832727       -9.17280968530557        0.02308647420126
H           11.39970772223303       -6.05004463609195        3.16909087489544
H            8.70613191237809       -1.45688982853824        0.16179328696676
H            8.82924356795953        0.25080375095433       -0.23937135457196
H            8.57772856672473       -0.91929231774500       -1.52644750054471
