38
 energy: -7.136581718000 gnorm: 0.000990847602 xtb: 6.5.0 (97a52f5)
C            0.51536943063654       -0.80683539880728        0.24062744934646
C            1.97193043108071       -0.57142888754619        0.07182491451561
C            2.40332646659927        0.76334981385843       -0.22807239054286
O            1.40221348653034        1.74488906503509       -0.32281536599180
C            1.81283093270140        2.95579547192128       -0.93818429043922
C            2.68202379590868        3.76705745731582       -0.01279864454805
O            3.59211673223457        4.41751034778132       -0.47768210739964
O            2.35570959004579        3.68505591012655        1.29686372313804
C            3.74562170993343        1.03240866892858       -0.39639592432866
C            4.67560578367489       -0.00621389634753       -0.27038649292948
C            6.09063225080840       -0.03008468457627       -0.36448695989025
C            6.48645351349658       -1.33325870091022       -0.12952716658620
N            5.37791741187333       -2.11489820171688        0.10698560064641
C            4.24791481753117       -1.31613612708580        0.02155095997504
C            2.87631623094281       -1.61121683860150        0.18473232289875
C            2.45260886846627       -2.99754377493925        0.51107925182405
C            7.88531871891635       -1.75682782404916       -0.12532421857080
O            8.20638829379487       -2.88240706116172        0.17841976270959
C            8.90519406898082       -0.71777693246014       -0.52017187025920
C            8.48492194642785        0.72823006519926       -0.16178585259471
C            7.05146888096762        1.08576695005582       -0.62148087397364
H           -0.02963572756141        0.13770940921772        0.22906608604692
H            0.30445448258795       -1.30143758536853        1.18901927745121
H            0.12291736249631       -1.42322131021823       -0.56835352842332
H            0.91020876232754        3.51647573678398       -1.19771618097153
H            2.33524084358806        2.72111421680578       -1.87004277520183
H            1.60748200601376        3.06496638367579        1.41390510438472
H            4.09171583459302        2.02938773702595       -0.58721289567252
H            5.41273340543716       -3.11123388668344        0.31610621354673
H            3.19606445362298       -3.72200407961945        0.18000917063821
H            1.51362055806718       -3.25231291750194        0.02007433260867
H            2.32059100791495       -3.11915451452169        1.58640803463565
H            9.07653642424023       -0.79597147972538       -1.59836916719325
H            9.85834993181105       -0.97281661271039       -0.04383977142085
H            9.20361525677058        1.44270706194451       -0.58462699363574
H            8.55397959435819        0.85728365391741        0.92472266620977
H            7.04693079322237        1.31861604253553       -1.69205136244763
H            6.69594164895808        1.99022672242530       -0.11364003755421
