42
 energy: -8.018780898675 gnorm: 0.000580335663 xtb: 6.5.0 (97a52f5)
C            1.07045338977479       -0.09014633991753       -0.11710906871834
C            2.55706781487515       -0.17542617175360       -0.07463161018056
C            3.15112756968778       -1.36455996678706       -0.08307189868767
C            4.55265365759099       -1.50933644511724       -0.04283380156707
C            5.38330031944267       -0.42230026585567       -0.12454173882598
C            6.85029449993073       -0.56665130102127       -0.34090372148113
C            4.78565285424908        0.88583917459974       -0.05388183602504
C            5.56512855359494        2.05784478386509       -0.02380425054639
C            4.98218179538495        3.29256224458462        0.03133264998046
C            3.59595226584907        3.41304719707041        0.05771562718883
C            2.80785760772186        2.29688981848473        0.02958558394185
C            3.37331092321705        1.00909214267479       -0.02534655818981
C            4.89312189602161       -2.98924114628321       -0.25899582260363
C            5.89148554098935       -3.36346174404772        0.60658738933776
C            6.41277506752987       -2.81546429069386        1.75340545020207
N            7.38606789637203       -3.35359211596844        2.46523386577356
C            7.98797049404814       -4.48966606254914        2.18129635692414
C            8.95229353560274       -5.07113429887146        2.84827165205664
C            9.30670423867457       -6.20914239090081        2.30546132173193
C            8.85138440771675       -6.86010023950961        1.21717575982977
C            7.90397406734635       -6.46626757011104        0.41444242726807
C            7.37728233320606       -7.06850454541711       -0.71000131040969
N            6.41311132134590       -6.54792671765708       -1.43759455037146
C            5.82205616042775       -5.39220707311630       -1.19135389444067
C            4.87768321357210       -4.82699564747477       -1.89704408929714
C            4.51179534269866       -3.67461643635752       -1.39492659772132
H            0.62564808544482       -1.08320679275634       -0.19315800100165
H            0.73606593819510        0.48864442566970       -0.97886038884895
H            0.67970848564781        0.37931199881547        0.78641065807410
H            7.11497167772331       -1.58793646340316       -0.61408699600452
H            7.40712280703422       -0.30289461194726        0.55867655505121
H            7.18936279238317        0.07733299457677       -1.15288779169518
H            6.63781949209042        1.97776051750017       -0.03442107357471
H            5.59611867551472        4.17811996404225        0.05553257599780
H            3.14487631521771        4.39098231870463        0.10035177887820
H            1.73731673418125        2.40125233246518        0.04995827956737
H            5.97402305751946       -1.89458435061402        2.10283781376915
H           10.02102939860638       -4.78767425820723        4.41418702081929
H           13.17899105079205       -8.54386679280872        6.17044300010213
H           11.57916205340558      -12.49074187696208        0.25705845971898
H            7.79227416355486       -8.02098048279666       -1.00015641569501
H            3.80729250547030       -5.17801351379474       -3.43510281067213
