56
 energy: -11.537647582155 gnorm: 0.000444889944 xtb: 6.5.0 (97a52f5)
C            1.11626070028672        0.29635641745789       -1.17826133367979
C            2.49802897378234        0.13891273187791       -0.63459190578602
C            3.16890514771672       -1.05642805507920       -0.71509765543411
C            4.45966142458241       -1.17433429850795       -0.13031130370262
N            5.07824237041052       -0.18020157551776        0.48198791937846
C            4.44890100431778        1.02188432561423        0.52554852675368
C            5.10612836957088        2.10594340363268        1.14615363174251
C            4.53446639396906        3.34124173225740        1.20699165345355
C            3.27458424440154        3.55783701583100        0.64654981577082
C            2.60686267407113        2.53360537929318        0.04370301684973
C            3.16631106322950        1.23635730072872       -0.02653910284781
C            5.15756632806751       -2.46586266569960       -0.18603795846833
C            6.26977521482103       -2.69172037380751        0.62127867367634
C            6.96112977662255       -3.88603626230576        0.59496921416439
C            6.53872012232770       -4.90189503025346       -0.27128282447010
C            5.43292780723005       -4.67205039332465       -1.08654787708710
C            4.73861020792342       -3.47920377697228       -1.05702394602278
C            3.57227615405183       -3.24559635270856       -1.96944946284096
C            2.54650485165193       -2.25551997059335       -1.38620100225333
C            7.25337271651711       -6.18368491650605       -0.34336951939713
N            6.99362049159618       -6.96226616519243       -1.37875962068965
C            7.66362540582938       -8.13996268758236       -1.46493837756892
C            7.42915227168692       -8.97051712373456       -2.58177144910551
C            8.08197511074823      -10.15691181172547       -2.73313719371463
C            9.00780951381138      -10.57358804050610       -1.77527154451174
C            9.25718347886955       -9.80043773366500       -0.68069409107417
C            8.58886191472597       -8.56895760258873       -0.48738115531567
C            8.81272917992569       -7.73925727223679        0.64471711049893
C            9.73344746005054       -8.17678607015018        1.73580890408032
C            8.16752030639744       -6.52808154471818        0.69016670033751
C            8.38943795571200       -5.56903032081610        1.83307132846360
C            8.17128156884958       -4.09189396255618        1.45558198708863
H            0.56543215391557       -0.64402309896123       -1.15624773073396
H            1.14091515045987        0.65322328718097       -2.20854688207554
H            0.53304696526252        1.00186772444040       -0.58673379988775
H            6.07960547103978        1.93439173002428        1.57108911324069
H            5.05553825237949        4.15538226179504        1.68385411075262
H            2.83216833170488        4.53967810715721        0.69032746487665
H            1.64566350009598        2.72131984962449       -0.40039726405840
H            6.59836217962154       -1.90621002969552        1.27676942497267
H            5.12089066360129       -5.44791033106976       -1.76140739510329
H            3.09183589452914       -4.20594754721898       -2.19536473520503
H            3.94872172622683       -2.86947789621397       -2.92807500467899
H            1.90824167710711       -2.76996752562153       -0.65830787283341
H            1.87742771051783       -1.91785689749579       -2.18661416792573
H            6.71943654490260       -8.64109974699038       -3.32030053878914
H            7.88907725219119      -10.77426179944031       -3.59529706822976
H            9.52793487615130      -11.50846815875287       -1.90633111910515
H            9.98754790568795      -10.12538269028040        0.03856813064453
H            9.68672666518683       -9.25522833725877        1.88663992880898
H            9.46932513010354       -7.72618927433063        2.69245427736810
H           10.76532933782630       -7.90896717261821        1.50578939081277
H            9.40723677100960       -5.69407726137942        2.22131712554737
H            7.71799855699990       -5.84451652381279        2.65474156069128
H            9.04943665780223       -3.71032415725487        0.92129777270426
H            8.08211042191615       -3.47512881176380        2.35878411993007
