36
 energy: -4.403866999743 gnorm: 0.000904969933 xtb: 6.5.0 (97a52f5)
C            0.92800110313147       -0.16100459733226        0.05756437143090
C            2.41319574455078       -0.06056259651653        0.05746029963323
C            3.09648698200233        1.16863801190572        0.05866347382671
C            2.41779401383540        2.42315510628867        0.05991391899139
C            3.08235866340042        3.60037174909011        0.06052867248846
C            4.50751003780677        3.66822430861086        0.05988090042393
C            5.20655046621458        4.88936549834284        0.06001352476301
C            4.51788370997253        6.20851984477760        0.06175411575198
N            6.58232765436184        4.86812133427434        0.05821821185576
C            7.40223128867890        6.09044416264306        0.05697493690963
C            7.28016390149435        3.68402117068011        0.05708000606249
C            6.64072833440814        2.49418879896582        0.05741019981263
C            5.22981295155565        2.43318333989598        0.05870549919500
C            4.52683200071323        1.18747736833989        0.05844731520643
C            5.20329703443741       -0.05267943274055        0.05784547038961
C            4.51596074984864       -1.21582931402701        0.05677444583019
N            3.14103634823932       -1.22692153574875        0.05621479385468
C            2.47714119884291       -2.53927561083566        0.05354720061449
H            0.43027086735678        0.80543292490492        0.05740154802329
H            0.57969317658164       -0.69462377807130        0.94257664943592
H            0.57952924424386       -0.69485063667632       -0.82723971783505
H            1.34368464202952        2.45056713918721        0.06035298572296
H            2.50278977674642        4.50499608533725        0.06120937208084
H            3.43384997150224        6.12888361042536        0.06486794516725
H            4.78650179162767        6.78184246914669       -0.82675768004611
H            4.79137154860954        6.78199528154035        0.94868169590122
H            6.79869519304061        6.99311382730926        0.05684808814616
H            8.03321403921726        6.10343240917092       -0.83021765512104
H            8.03458336489755        6.10442274316892        0.94317674161667
H            8.35709595540113        3.72755440149204        0.05583817389812
H            7.22570270633406        1.59281266314226        0.05632828251548
H            6.27730750792315       -0.08726409689252        0.05842318258963
H            5.03935144545899       -2.15759757731975        0.05626175880225
H            3.21195825242696       -3.34172488376065        0.05304652352179
H            1.86138213861242       -2.64584959493290       -0.83714678926704
H            1.85955619449554       -2.64859059378593        0.94263153780715
