33
 energy: -6.913506353667 gnorm: 0.000256683601 xtb: 6.5.0 (97a52f5)
C            1.01127807317891        0.00038771982436       -0.05830855534830
C            2.49665940655805       -0.08578594831170       -0.05767274553596
C            3.22202834487430       -1.29965711994927       -0.05702112635030
C            2.59729585890139       -2.56852687029128       -0.05726955832877
C            3.34524061083940       -3.69685052453026       -0.05668516612586
N            4.69038014539381       -3.73049033223904       -0.05585273670502
C            5.28346840375366       -2.57288624491118       -0.05558899439176
C            4.64979904911967       -1.30407968856838       -0.05610390041664
C            5.38151326976206       -0.08397544352396       -0.05581431594739
C            6.86955778149788       -0.02698443620551       -0.05434081731892
C            4.65503692227804        1.10056266851287       -0.05677059616396
C            3.23020745467267        1.09215486589222       -0.05764883957466
N            2.78104760340381        2.41122497887965       -0.05835713121475
C            3.87568405044462        3.27034502880611       -0.05818828022464
C            3.93141306947330        4.66466792083870       -0.05887312069691
C            5.16099675693615        5.27429894283175       -0.05867797799423
C            6.33543781282816        4.51847135603734       -0.05782121800507
C            6.29640015439927        3.14395378371528       -0.05710160649552
C            5.05690650954723        2.49964905688697       -0.05721433034219
H            0.53057227095332       -0.97565096860426       -0.05773824245512
H            0.65963910358612        0.53702757596154       -0.94020390996619
H            0.65899462499773        0.53831966587139        0.82254550381648
H            1.52569640046412       -2.64527292205517       -0.05796746778934
H            2.85059225683702       -4.65688815235580       -0.05689482506515
H            6.35822808949532       -2.61662650280690       -0.05501798019027
H            7.33495389819982       -1.00968314143994       -0.05392304338590
H            7.23172309549307        0.49781057618479        0.83031553160840
H            7.23349775084362        0.49778961072848       -0.93827049584723
H            1.80638260748629        2.70602700319297       -0.05943752309966
H            3.02020112754360        5.23576955476282       -0.05954689844072
H            5.22218949379900        6.35022213753506       -0.05921254210361
H            7.28776064946286        5.02289499082224       -0.05774332767616
H            7.20661735297566        2.57342085850807       -0.05640376222468
