15
 energy: -2.964632826832 gnorm: 0.000524321240 xtb: 6.5.0 (97a52f5)
C            2.64003100479626        1.00445455481531        0.03693306390205
C            1.19941052820472        0.65894373649679        0.01340952307596
C            0.22437038107231        1.59785103403283       -0.00430919074472
N           -1.10283983388902        1.25676207840453       -0.02516923874851
C           -1.52381988776425       -0.06368501909392       -0.02532208430356
O           -2.70481333430450       -0.35787620267493       -0.03627909264926
N           -0.53691525790822       -1.02879135159533       -0.01107212646533
C            0.81622540233866       -0.73998683842972        0.00814895683519
O            1.65812822103587       -1.62574108869838        0.01930919613954
H            2.79705989384796        2.08371452760493        0.03415104218423
H            3.14482993292724        0.58336747444594       -0.83360064342537
H            3.11396931839181        0.59242952529485        0.92886791208168
H            0.48762935443508        2.64292997609345       -0.00175714198692
H           -1.81883922744364        1.97044600249438       -0.03441355201535
H           -0.81240649574027       -1.99426840919075       -0.01487662387964
