88
 energy: -18.728001285127 gnorm: 0.000358669957 xtb: 6.5.0 (97a52f5)
C            2.89668763193843       -0.05114015321010        0.11538054037220
C            1.40930308762355        0.01985019087593        0.05826149575892
C            0.68127040214619       -1.15100841754866        0.05225937659662
C           -0.71860153888201       -1.16737278872322        0.03894161248342
C           -1.44163581330943       -2.46679903996384        0.03349766617715
C           -2.17921864878137       -2.87741033919846       -1.10836252838359
C           -2.22998963986026       -2.07493445185097       -2.27376298590799
C           -2.95690910223331       -2.45003025881184       -3.36165566362560
C           -3.67391293566286       -3.65172078002109       -3.34852036523613
C           -3.63620733502014       -4.46091521959534       -2.25441165739304
C           -2.88000281402140       -4.11735603668664       -1.10695545240306
C           -2.82844833378709       -4.97045101286153        0.02762853996286
C           -3.54028133404386       -6.27308454173620        0.02172174760413
C           -3.20680421140891       -7.27484494680218       -0.92714914762835
C           -3.84202223355109       -8.47532304280129       -0.93981500520527
C           -4.85855788522222       -8.76687744138572        0.00158557174905
C           -5.53404492853091      -10.00599127422847        0.02026637407766
C           -6.50391111820149      -10.25529368482883        0.94636234741279
C           -6.84635366217259       -9.28345619385809        1.89526575176699
C           -6.21621092269267       -8.07556991728623        1.90516894913825
C           -5.20534285360112       -7.78239800734788        0.95929213769443
C           -4.53306464703971       -6.54555993198202        0.94341933715416
C           -2.07858712562828       -4.56645873904833        1.16458562613926
C           -1.97106731669075       -5.39351928370474        2.30970149705404
C           -1.26006744082786       -5.00407432238032        3.40328851706196
C           -0.61139895066176       -3.76424845718505        3.41729327341824
C           -0.67603818363927       -2.94563316253260        2.33171691876547
C           -1.39389481933340       -3.31755659057480        1.16927922226757
C           -1.40384228620715        0.06533375738864        0.04710915344110
C           -2.89204920477741        0.12818946042570        0.07865359484140
C           -0.67438129456736        1.23438235534027        0.02258955944485
C            0.72330299092801        1.24947980466728        0.01598883466714
C            1.43227646852536        2.55048353460749       -0.01622936166246
C            1.06759186941700        3.58071755998863        0.85493608760391
C            1.71245342704978        4.79220683632727        0.82716451110248
C            2.75330823185329        5.03233304470642       -0.07097419185911
N            3.43152849205044        6.28902289140527       -0.09208916674952
C            3.48880048087716        7.11186483085844        1.08498646086129
C            3.35677843953518        8.49562411107164        0.98572697568778
C            3.41825723025991        9.29080324040357        2.10781729550231
C            3.61611683508411        8.72046690134419        3.35051061210748
C            3.75526305079292        7.35064752593110        3.46577913937832
C            3.69433560872085        6.55313716442944        2.34505442464667
C            4.07575897554637        6.75289077070879       -1.29055237201014
C            5.31967128829566        7.37794473536204       -1.22712381351222
C            5.93922730017869        7.82978202874818       -2.37042517110923
C            5.32743293175226        7.66965969060232       -3.59874828100022
C            4.09133358474249        7.05741882745130       -3.67838638090885
C            3.46960681513010        6.60431234182433       -2.53652041809823
C            3.11016907694231        4.00882172777644       -0.94995814429726
C            2.46119575358749        2.79943934163998       -0.92858498350938
H            3.22484450490908       -0.92025723427456        0.68715934662248
H            3.31800922704625        0.83202079486406        0.59683370202829
H            3.32239489440809       -0.13247264350172       -0.88537628524136
H            1.20352522300531       -2.09128339367328        0.06115731107800
H           -1.68012633718987       -1.15047593959020       -2.29028717229247
H           -2.98614382816934       -1.81994572714775       -4.23568043665173
H           -4.25482707934796       -3.93589415553410       -4.21085309831396
H           -4.19655421068555       -5.37882679430407       -2.25173385248233
H           -2.42515722330161       -7.06764477863843       -1.63784958808290
H           -3.57549289774666       -9.22403467005583       -1.66579836866052
H           -5.27156835971405      -10.75394329959164       -0.70814205237300
H           -7.01178135218740      -11.20600010317156        0.95120922744510
H           -7.61380085591265       -9.49637612465657        2.62161498692658
H           -6.47917749536873       -7.32924578696461        2.63500310610485
H           -4.80164074071380       -5.79343303277007        1.66300646547180
H           -2.45812731600308       -6.35223826804073        2.30634454135444
H           -1.19547848236934       -5.64992665039581        4.26385971319151
H           -0.05620543138686       -3.46171108338702        4.29022943270397
H           -0.17536057350100       -1.99377661264578        2.34984873300929
H           -3.32451251977621       -0.82258292859930        0.39199057821525
H           -3.29243202436032        0.37156372363802       -0.90627208512090
H           -3.23501545138845        0.89116526455471        0.77880476107065
H           -1.20004341813622        2.17246678104277        0.00186314901799
H            0.27295170670653        3.40875002773522        1.56048598822582
H            1.41064947081015        5.57936445075686        1.49546213992758
H            3.19903290850830        8.93320132262192        0.01538946426281
H            3.31197536405475       10.35959062849734        2.01657433272617
H            3.66383945479405        9.34368600548792        4.22863586189921
H            3.91398409037540        6.90571729513973        4.43463008282673
H            3.81724498834984        5.48731559080897        2.42786748071785
H            5.79242222416992        7.49575635164560       -0.26765756302740
H            6.90289648068443        8.30855833182111       -2.30713588158717
H            5.81319801302618        8.02378466724671       -4.49341968465503
H            3.61196490072205        6.93617159545018       -4.63613441096155
H            2.50066724877179        6.13943057041403       -2.59123848033211
H            3.91385188457454        4.17718282476652       -1.64490923454849
H            2.73127961971637        2.03169836272865       -1.63263027195539
