37
 energy: -6.213926148119 gnorm: 0.000964704507 xtb: 6.5.0 (97a52f5)
C            2.38000427532310        1.12493689516968        0.38036349160519
C            1.14625570784484        0.33101028885375        0.16649987396915
C            1.19903673009082       -1.04477076486032        0.19348164559492
C            0.05199250600468       -1.79417865893441       -0.00865954697824
C            0.08429304390897       -3.27285169667371        0.00956700726315
C           -0.63218883541776       -4.01538360438376       -0.92646531363201
C           -0.60053786714337       -5.38896037966551       -0.91214641279731
C            0.14769241983584       -6.07739923821466        0.03939470780564
C            0.18244533332720       -7.55694926385276        0.05262568468429
C            0.34634779047479       -8.27734050954735       -1.12791564938548
C            0.37705688738603       -9.65332805253009       -1.11467106806418
C            0.24459745081405      -10.33688516179082        0.07522930811122
C            0.08132152243276       -9.64049069447743        1.25388793781327
C            0.05103959232000       -8.26436869579550        1.24496548470257
C            0.86270805916754       -5.33588657650174        0.97655031106712
C            0.83243166546125       -3.96213128225915        0.96150184379558
C           -1.12634649728720       -1.10173243563963       -0.23283660957336
C           -1.13354843171484        0.27518052709187       -0.24903700090745
C           -2.39941173681334        1.00780459231024       -0.49300198057959
O           -0.00889612031771        1.00315598211985       -0.05235189316146
H            3.13524688201100        0.88129621327805       -0.36695406477240
H            2.79785680801846        0.93742930825198        1.36917288598015
H            2.15772566861425        2.18856356361314        0.30274090428175
H            2.13931931689519       -1.53888035543500        0.35651378135218
H           -1.20542918209448       -3.49869803824514       -1.67625971796589
H           -1.16752575519834       -5.94782787761853       -1.63605715038579
H            0.46251153617528       -7.74440127574733       -2.05559765557241
H            0.50654375147509      -10.19724902492954       -2.03588301233150
H            0.26835364148295      -11.41426187909799        0.08399145197558
H           -0.02479931416625      -10.17475778381915        2.18379362173427
H           -0.08957880804190       -7.72209863769467        2.16376326747223
H            1.45397141118313       -5.85339059679398        1.71179154880008
H            1.38204162772740       -3.40412395195169        1.69946872895490
H           -2.04380931953742       -1.64126411664075       -0.38162136513795
H           -3.17264687594777        0.69995584037650        0.21111271615106
H           -2.76226653470242        0.83132510788477       -1.50474962901942
H           -2.23999834959366        2.07803223415087       -0.37287813284323
