63
 energy: -13.709500060815 gnorm: 0.000804911801 xtb: 6.5.0 (97a52f5)
C           -2.35187861278736       -0.56928308034551        1.38115028518562
C           -0.97326112897926       -0.49162084926572        0.82606906073149
C           -0.18291414922719       -1.61097790337358        0.82351501424762
C            1.09825612039222       -1.52423214740519        0.30896190864036
C            1.98888427369203       -2.69786343069565        0.27881640123038
C            3.36623595595541       -2.51226587000124        0.17886214459771
C            4.22733245777370       -3.58313242095553        0.14236160551445
C            3.74413008670892       -4.89003741220906        0.19393527932194
C            4.66875262187810       -6.04580448822069        0.15093652788962
C            5.85179886699690       -6.04347970982780        0.88887001500415
C            6.70960718839403       -7.12114945275090        0.85047833977715
C            6.40522116888400       -8.22164281035648        0.07439936112416
C            5.23961010262106       -8.24132310358511       -0.66462011136902
C            4.37878120868107       -7.16599880903812       -0.62728846173357
C            2.36490858621602       -5.07792098648529        0.28201974593472
C            1.50464780374970       -4.00603478573805        0.32441475111951
N            1.55481162121219       -0.36935507814385       -0.16642531107687
C            0.71292440813106        0.66438421785454       -0.12843327528814
C            1.20824960444667        1.93455626605880       -0.68182374909750
C            0.41357437763609        3.07850482636380       -0.66675236728824
C            0.86764179064624        4.25841242916507       -1.20414251261691
C            2.13372170584675        4.33590269015179       -1.77773106002857
N            2.60108707281447        5.56348528587266       -2.35809990301598
C            3.86817546493738        6.15321622159979       -2.15666311717894
C            4.94168740509336        5.76497474504552       -1.35513403339092
C            6.07144101341138        6.54601007134534       -1.33789780560438
C            6.15263844883765        7.71282191188865       -2.10281177494481
C            5.10155179303500        8.11504996959342       -2.89173881125997
C            3.94711458729435        7.33163147018108       -2.91851654376233
C            2.69081156331272        7.47703400600204       -3.61585758009304
C            2.21910237335175        8.44093853828807       -4.50793788713837
C            0.95750606847441        8.29220702323019       -5.03247022377870
C            0.16043786883350        7.19734366559128       -4.68749134435107
C            0.61122205079255        6.24202817355772       -3.80951904378236
C            1.88465147567114        6.38285190635137       -3.25792036495948
C            2.93250560605487        3.19587349571948       -1.78881909693189
C            2.47765154128809        2.01712239220596       -1.24965885365244
N           -0.53436191727562        0.66340674729953        0.34687938641276
H           -2.33171308759041       -0.83056046415837        2.43965841607558
H           -2.94249587596806       -1.31953903166765        0.85469160555969
H           -2.85948854205953        0.38987630231973        1.28076939842195
H           -0.55325550548525       -2.53067535073686        1.23703639512231
H            3.74770000071695       -1.50736019848445        0.12967169041746
H            5.28791517397685       -3.42016367599813        0.05851811036797
H            6.08364870361600       -5.19072515584556        1.50347546948687
H            7.61819071602509       -7.10626910472639        1.42951234065272
H            7.07675354947278       -9.06407124916626        0.04527800762371
H            5.00273905933960       -9.09955631585123       -1.27293416489649
H            3.47621365305519       -7.17702955726757       -1.21314579605174
H            1.97714853407470       -6.08118223667831        0.32646590236014
H            0.44397778909506       -4.17779060791334        0.37246571044530
H           -0.56659610472177        3.02179160520926       -0.22731760772550
H            0.25398459366416        5.14168663196636       -1.17673988603176
H            4.86926708275497        4.87357190494316       -0.75837503827067
H            6.90836596405166        6.25642927054575       -0.72392879974278
H            7.05120843800341        8.30676458861728       -2.07004518673607
H            5.15384599985620        9.01406735886633       -3.48005722676961
H            2.84175787030275        9.27690315612045       -4.77357490569650
H            0.57804491033423        9.02768316845286       -5.72265425790707
H           -0.82218975679862        7.10118235627006       -5.11934707998930
H            0.00726934660988        5.39076121225435       -3.55175946358230
H            3.90534459413904        3.24675529092293       -2.24532502165567
H            3.09551441876738        1.13664638702555       -1.26546520585294
