57
 energy: -10.752335652140 gnorm: 0.000645253824 xtb: 6.5.0 (97a52f5)
C            0.86239051371289        0.58665387045667        1.39121488233475
C            2.09903915862773        0.29392153677592        0.60603613130619
O            2.43197070381302        1.03042739305211       -0.29572674226434
C            2.90589440852850       -0.89550934111075        0.93880820260941
C            4.01540444772029       -1.19759123038576        0.15800440083443
C            4.79071090419228       -2.29868296052135        0.42449680204441
C            4.48939598193986       -3.14967976885296        1.49227889279656
C            5.31498046586728       -4.31379523976689        1.73284157296165
C            5.17182434800483       -5.18382834151738        2.75229208713313
C            6.00036129001088       -6.33116171639383        2.91386037963668
C            5.86189029712238       -7.21592904010609        3.91988860408854
C            6.67195754148365       -8.40273379237595        4.04885568507584
N            6.18390679397823       -9.53025502094916        4.49482642221581
C            7.16308145395216      -10.53911264116369        4.42959893475867
C            7.68415376444209      -10.87680185897751        5.80927675190713
O            6.92730619723476      -11.03994676322156        6.74173592353630
N            9.04677354846465      -10.99268334092013        5.93149436911129
C            9.95807530443527      -10.80320450449472        4.89300532618697
N           11.27966501346574      -11.13124792735526        5.13527737377845
N            9.61566374353169      -10.37921631955726        3.71908226532362
C            8.27921785855424       -9.98437885033523        3.49595792446331
N            8.01620209568077       -8.53356492849946        3.58857125146926
C            9.11687590112815       -7.77908118390518        4.24060274931261
C            9.19151585166674       -6.28328006728680        3.88199635073610
C            9.62314041752611       -5.61581874336174        5.19623206698224
O           11.02604067009312       -5.42337764393479        5.27577770920013
C            9.12591483787975       -6.59926332342855        6.28960355995660
C            7.77633588184616       -6.18792343965254        6.87867247715952
O            7.80002506315333       -4.90647223033665        7.46900201740107
O            9.05990527109743       -7.90426825872425        5.67733250339946
C            3.37523305420803       -2.83865942499171        2.27855953409957
C            2.60120415596468       -1.73679792191548        2.00745315649445
H            0.36067125032214        1.46140777137440        0.97943947204901
H            1.09930517748511        0.79731020386926        2.43367991499208
H            0.16389007762159       -0.24877297243093        1.35154825206444
H            4.25338276950713       -0.54751147010233       -0.66675621672923
H            5.64387894744697       -2.51698873832398       -0.19443691675893
H            6.10524045191073       -4.49748246117876        1.02628740671036
H            4.40208574225717       -5.02296098755777        3.48426853093628
H            6.74445860677315       -6.52498982786168        2.16144318508433
H            5.04984130386031       -7.09206755933868        4.61400570771712
H            6.71308729494119      -11.44572627143451        3.99416705000456
H            9.40748436654416      -11.20186438344292        6.84828550853245
H           11.55750157135377      -11.67953760881061        5.92612547401069
H           11.92548290136794      -11.18705872560536        4.37379472585584
H            8.04569317162166      -10.26920923292552        2.45675972956233
H           10.05616557452711       -8.26832803320821        3.94800791849955
H            8.21948465909883       -5.91376249496661        3.55759015256451
H            9.91026060902806       -6.08107791875172        3.08252245398020
H            9.15587637028407       -4.62684398013957        5.32728637372718
H           11.48107413694573       -6.28445192243225        5.21261713617713
H            9.88047267855564       -6.66215429420295        7.08614828560409
H            7.42685407155072       -6.92523498579112        7.61166065608514
H            7.02689750875906       -6.15979516564094        6.08201530086557
H            8.43743946978334       -4.87667673578952        8.20824565955665
H            3.11160998046353       -3.47455069080772        3.10418436933563
H            1.74879436866570       -1.51999849072817        2.62693030354859
