61
 energy: -13.307735816692 gnorm: 0.000694467543 xtb: 6.5.0 (97a52f5)
C            2.46145269530331       -0.14318437657075       -0.02747883131832
C            0.98901959226810       -0.05630076882514       -0.23722812768274
C            0.23513713505491       -1.21433431070103       -0.25033412980854
C           -1.14812348961811       -1.19764276768943       -0.43160908434197
C           -1.92796794528789       -2.45351107548310       -0.42895752761021
C           -1.59594300790769       -3.50092450429739        0.43274423490603
C           -2.31759700530949       -4.67029037049532        0.43759946444131
C           -3.40104897633813       -4.84375376405036       -0.42160089957869
C           -4.17732678547528       -6.07929089640741       -0.43185547139965
N           -5.18426377983884       -6.30876212299764       -1.26591018567651
C           -5.64864491726365       -7.55405369525999       -0.96416203842570
C           -6.69803439806992       -8.30102422972037       -1.52467477166527
C           -6.96335217362632       -9.54769058935236       -1.02344635227648
C           -6.21045484084198      -10.08530730161874        0.03313137514414
C           -5.18235818677969       -9.38038131772316        0.60001623344241
C           -4.89462383925765       -8.10452252467381        0.10085509400133
N           -3.95731187855439       -7.15363394381736        0.42738405758702
C           -3.73393353663989       -3.80124193020410       -1.28370164131993
C           -3.01519236386965       -2.62997015929497       -1.28709782199160
C           -1.76992141034676        0.03758575995539       -0.60698232283722
C           -1.03707730122209        1.19888715136654       -0.60513103632276
C            0.34786929765393        1.18139416667761       -0.43204884979970
C            1.10652558459732        2.45713678938744       -0.44954959358146
C            0.83073718780714        3.46396890040104        0.47701626711298
C            1.53774551258375        4.64244518925045        0.47007974978649
C            2.54470785849244        4.86440420589509       -0.46813375489788
C            3.31147364127923        6.10576836034805       -0.48977954040981
N            4.21505218609345        6.39385550911509       -1.41853567535660
C            4.71219020486352        7.62055758231048       -1.09457019960744
C            5.69298371332341        8.40559095963832       -1.72287710622383
C            6.01989626335426        9.61768327037918       -1.17544621270495
C            5.39704711677155       10.08248901291995       -0.00560257673744
C            4.43881948652922        9.33839581295400        0.62963721754260
C            4.08909388440150        8.09708727697899        0.08469129281175
N            3.19424191350377        7.12181619214337        0.45625109066329
C            2.81176055344602        3.86532827042697       -1.40180020411022
C            2.10830457902040        2.68547721143452       -1.39418736219870
H            2.71311954761578       -0.96277944518914        0.64656015704363
H            2.85386376760157        0.77365932875959        0.41314668537447
H            2.97885101291104       -0.31437987538201       -0.97188135533765
H            0.73287294485953       -2.15929763935681       -0.12689977825633
H           -0.77102717413444       -3.37757325306338        1.11275401957652
H           -2.04671903947489       -5.46376037909922        1.11049048536266
H           -7.27282058492780       -7.88542259116273       -2.33261907199744
H           -7.76566223118589      -10.12948602616234       -1.44653417623650
H           -6.44754412420933      -11.06936593754739        0.40265462090251
H           -4.59977675268875       -9.78311261284963        1.40914549826095
H           -3.26688895895864       -7.23492566791068        1.17225627766270
H           -4.56736461308057       -3.93006289880496       -1.95178663565963
H           -3.27826200940825       -1.84035783497122       -1.96919832181667
H           -2.83837912480597        0.07497518577573       -0.73038584187690
H           -1.52803091839489        2.14651486906352       -0.74605598169985
H            0.05854884350663        3.29963966785547        1.20866272501726
H            1.31371941928229        5.40594903609384        1.19299510969201
H            6.16808391478340        8.04530298846857       -2.61760773726231
H            6.77042938677635       10.22824462962279       -1.64989070839397
H            5.68032314921757       11.04072927079929        0.39780987533053
H            3.95738961727948        9.68470865400366        1.52667605013379
H            2.59537477835599        7.14895659786867        1.28014938427724
H            3.58362743703066        4.03355337099604       -2.13205435665438
H            2.31894914197288        1.92424958980237       -2.12526168297013
