63
 energy: -13.709950368599 gnorm: 0.000695226589 xtb: 6.5.0 (97a52f5)
C           -2.33627490329212       -0.12868700241604        1.56556800443304
C           -0.98866488122470        0.09440202494303        0.97507588437922
C           -0.29804592957522       -0.96667755988481        0.45065186535604
C            0.95630925405982       -0.74737164835811       -0.08928626238807
C            1.73856951413709       -1.85213710205515       -0.67074867200992
C            3.12208689876934       -1.72700942579767       -0.78811544597600
C            3.88189964834731       -2.73405285102038       -1.33177998964435
C            3.28445218786738       -3.90390877590234       -1.79069866953189
N            4.07424244264043       -4.95520786691916       -2.36787231588530
C            3.95599021891829       -6.33552680994119       -2.09269450570533
C            3.12773651658885       -7.02594991130852       -1.20751973904499
C            3.23242886197113       -8.39342129657102       -1.13190178323109
C            4.15292488312189       -9.09029661764208       -1.91912129556754
C            4.98552472529595       -8.42593092202173       -2.78753815803188
C            4.89070080578160       -7.03638487213920       -2.87396758691133
C            5.61196312184418       -6.06172198180040       -3.65813513106785
C            6.63303031870646       -6.18696814155038       -4.60099253050856
C            7.11417922998320       -5.05091273477970       -5.20648991367435
C            6.59163745789189       -3.79361207833177       -4.89218104939855
C            5.58825186573331       -3.65531993981021       -3.96456329880707
C            5.09584533191488       -4.79616991506463       -3.33028923031190
C            1.90241591785171       -4.03011247292682       -1.68627548596674
C            1.14259516494415       -3.02586314516494       -1.13648821406218
N            1.48527129689428        0.47255375286466       -0.08682912602565
C            0.73600918770472        1.44501258882452        0.43432419625980
C            1.31092024181065        2.79950643260267        0.40862705703411
C            0.61354004023385        3.88378708483855        0.93398038483382
C            1.14631452350779        5.15057519376052        0.89669941857007
C            2.40010424403838        5.38398071101278        0.33078288027615
C            2.97157353558613        6.74870576594549        0.28172945548862
C            2.83055762876223        7.62437206401764        1.35785593099037
C            3.36311360492664        8.89437048655600        1.30925043344702
C            4.04589910988863        9.31703092720769        0.18641924483530
C            4.19566960144004        8.46468476213375       -0.88902853647852
C            3.66485062966850        7.19392626868679       -0.84344308678712
C            3.09858287972014        4.29505941986858       -0.19157563295960
C            2.56402448615114        3.02932090230071       -0.15266870169035
N           -0.48099805931101        1.31847007498730        0.96812859677789
H           -2.28533230360092       -0.83226669958988        2.39734930555240
H           -3.02633596417329       -0.52838463575412        0.82168448758226
H           -2.74968178509461        0.80751571704246        1.94077700132687
H           -0.72249379045332       -1.95299135471784        0.48362753976870
H            3.58905093284306       -0.82271852782948       -0.43888941522255
H            4.95149605118716       -2.63653028859167       -1.39337774707749
H            2.43126324727593       -6.48500449049948       -0.59269984270828
H            2.59580596142817       -8.93843059733539       -0.45435246667553
H            4.21260488397841      -10.16340838524268       -1.84056432023937
H            5.70110716677517       -8.95414794085662       -3.39249722752438
H            7.02436525284959       -7.15931704858186       -4.84277400369013
H            7.90192851005801       -5.13019250217848       -5.93749297783276
H            6.98122389973591       -2.91960434047742       -5.38785187172250
H            5.17327160538833       -2.69133969862026       -3.73184887757655
H            1.43309286079480       -4.92124149534428       -2.06453549851509
H            0.07357830443978       -3.13410322123972       -1.08789976242701
H           -0.35602746057933        3.71371713875222        1.36758784660025
H            0.58810130117938        5.98093501348288        1.29318541879834
H            2.30959419213043        7.29205143431742        2.23910089754673
H            3.24772922327341        9.55862019310171        2.15021570247448
H            4.46168323032474       10.31071328121195        0.14948994848392
H            4.72757923649112        8.79429506921073       -1.76663232895312
H            3.77080024401140        6.53561363527368       -1.68836581170212
H            4.07342842435823        4.45433125856447       -0.61886221643153
H            3.10883517209501        2.19535309675912       -0.55880277087929
