60
 energy: -11.191702489904 gnorm: 0.000400765027 xtb: 6.5.0 (97a52f5)
C            0.65021245966509        0.32553281990157        0.57485759422939
C            2.11125275885330        0.25799043753592        0.29119128123397
C            2.83906923923922        1.46347118488134        0.22306471462806
C            4.19505881626955        1.53440861202119       -0.01738691764359
C            4.89713883312418        2.82635209649294       -0.08063621342555
C            4.41325085298563        3.95538758102182        0.58021172025061
C            5.07058883939481        5.16298366275993        0.49710389936228
C            6.23377312195957        5.30559209112930       -0.24865247146084
C            6.94384461834224        6.66768649779161       -0.30435337009401
C            5.96858782252324        7.73462177730554       -0.83700896338391
C            7.41059707173550        7.05300020378191        1.11155709460098
C            8.17485478062854        6.63336245433549       -1.23137440236088
C            6.72204162598463        4.18065528574097       -0.90183560199643
C            6.07193406983390        2.97032446609948       -0.81482143655970
C            4.89547848789454        0.29205450526614       -0.21826113653210
N            6.18203609400694        0.12091218022733       -0.45352741685182
S            6.46172638501537       -1.49184410975942       -0.60982718667224
N            4.92311347199462       -2.01903226316545       -0.36838684504816
C            4.16133426076268       -0.96289108676610       -0.15934832533604
C            2.74335537259917       -0.96248021169602        0.08916466434677
C            2.01615452067486       -2.25058210097618        0.12686092499742
C            0.94915625416474       -2.50706601727811       -0.73211357801270
C            0.28698269355214       -3.71338699864258       -0.69344192932832
C            0.65423045716526       -4.71198615076315        0.20033965562731
C           -0.10055708972729       -6.05098245041645        0.20082910871456
C           -1.60846190481264       -5.79440607466930        0.38738508934594
C            0.14096566763389       -6.76563244204847       -1.14112178886089
C            0.37384330943831       -6.97428025866466        1.34033587712726
C            1.72665774931962       -4.45924639807742        1.04824241455328
C            2.39609817231756       -3.25660058650543        1.01224732564614
H            0.41506451281181        1.16987623359058        1.22423543872060
H            0.30139653901123       -0.57775590815053        1.07660711245442
H            0.07989917652480        0.44385084161982       -0.34717345314492
H            2.29065038913609        2.37920421385712        0.34749678997564
H            3.52523186121651        3.87560556890997        1.18231678253413
H            4.67805246535976        6.01381186253162        1.02649697323038
H            5.10578896350524        7.84714979127920       -0.18222814629385
H            5.60475782773401        7.46322750231407       -1.82753730163481
H            6.45701317469618        8.70580785487989       -0.91146844231993
H            6.56721968892932        7.14188683705080        1.79496723711598
H            7.93562246061365        8.00773070695232        1.10310172475169
H            8.08761319554569        6.29891628319335        1.51189079943005
H            7.89202831189402        6.36276487164914       -2.24822828955809
H            8.91571351747080        5.91833429671722       -0.87512651326196
H            8.65538184938019        7.61056238935371       -1.27138124348703
H            7.62560304846505        4.24619979351926       -1.48133610561026
H            6.47669944507702        2.10920515839401       -1.31378549003922
H            0.65752015405698       -1.75125550605522       -1.44089740324822
H           -0.52649604156093       -3.88986189347910       -1.37542780669443
H           -2.01778436446228       -5.20747398300858       -0.43337392918670
H           -1.79494745886555       -5.25210996971031        1.31383400142928
H           -2.16043354606391       -6.73297713338925        0.42929357897424
H           -0.21538568213816       -6.16501397342695       -1.97698501172234
H           -0.37720946496865       -7.72364116117875       -1.17197575868204
H            1.20395630102674       -6.95149874426559       -1.29220904498164
H            0.23485373489272       -6.50000636755652        2.31144958011776
H            1.42647297544532       -7.23128622456368        1.22690236436606
H           -0.19164603762146       -7.90578270501776        1.34333319316553
H            2.04727707323128       -5.21218293997019        1.74591439516994
H            3.22686711711568       -3.07723640289424        1.67275018733243
