39
 energy: -5.773240820177 gnorm: 0.000634376291 xtb: 6.5.0 (97a52f5)
C            2.19828323263177        1.17252819849690        0.92487083495354
C            1.06081812322839        0.36310499214148        0.42904865519587
C            1.12749217957610       -0.99856559088647        0.44992990374830
C            0.05861382665585       -1.78841062772200       -0.02194695881136
C            0.10876250868585       -3.23612007351593       -0.00608570754716
C           -0.87322782138499       -4.01850092414773       -0.64102066847400
C           -0.82066706915797       -5.39139142596765       -0.61849179557790
C            0.20408918034581       -6.07132545032253        0.03275136226098
C            0.22110730713223       -7.60811176859324        0.03640142657498
C           -1.06721585190394       -8.12977971608407        0.70208282319863
C            0.30115573483488       -8.11987159549880       -1.41493638509915
C            1.42997820172590       -8.16476762574041        0.81549660936069
C            1.18268818621904       -5.30752146031986        0.66334684785502
C            1.14142809167641       -3.93389268752946        0.64722283005584
C           -1.06259792507287       -1.08374217330230       -0.50723028141241
C           -1.09211114508451        0.27946747025713       -0.50909027541217
C           -2.28238103467160        0.99936899518998       -1.01953650238226
O           -0.03973769357824        1.03425987359109       -0.04807651615572
H            3.08246715175596        1.02113809763663        0.30594549176569
H            2.44771517327913        0.90773748669719        1.95189167650957
H            1.94391272015576        2.23134691417331        0.89984591119074
H            2.02388538196717       -1.46068153456188        0.81586846675659
H           -1.67416748389426       -3.54013042357159       -1.17330939521643
H           -1.58892295793075       -5.95471844157336       -1.11800316968517
H           -1.95269929091111       -7.81202393578657        0.15485331520477
H           -1.15130479388234       -7.75537914848011        1.72123152192713
H           -1.07265664990347       -9.21805768467114        0.74006889656648
H           -0.56233894798081       -7.80079451179554       -1.99547427354148
H            0.33666385159614       -9.20788799099977       -1.44273545191373
H            1.19495362544385       -7.73974111669168       -1.90732111896337
H            1.40752408840721       -7.84304307277034        1.85557073165537
H            2.36808010556136       -7.83783417524577        0.36957131987185
H            1.42505203519857       -9.25379135016560        0.80830555929151
H            1.98964582742138       -5.79529749961578        1.17931996135850
H            1.90724562329749       -3.38805907737865        1.16622525212104
H           -1.92430859078052       -1.61424522090491       -0.86371209093029
H           -3.18145946124108        0.69692715868087       -0.48287258623929
H           -2.43109550022088        0.80260103327659       -2.08103740455125
H           -2.15497993920554        2.07352608371380       -0.88896881550537
