70
 energy: -14.178890187758 gnorm: 0.000513709685 xtb: 6.5.0 (97a52f5)
C            0.72045211382352        0.14560960974277        0.28395474348259
C            2.20335696865433        0.09226305558029        0.14639078054829
C            2.91069178913794        1.30846303961859        0.09319326184164
C            4.28499105132979        1.40761508948569       -0.00569102113070
C            4.95356004181175        2.71203832361060       -0.06526526806981
C            4.30363393529410        3.89015836601473        0.32414618411027
C            4.92442590505954        5.11039466474672        0.22943998437958
C            6.22529377862097        5.21975716952082       -0.26070227227780
N            6.86143387721729        6.49641080275279       -0.37066852435688
C            6.55684152846664        7.53531333232569        0.57455363881806
C            6.40161975662948        7.24379101560812        1.92787246678703
C            6.10988826488739        8.24022292858142        2.83214134709800
C            5.96748400928978        9.54546100957687        2.40278104136771
C            6.11904023829795        9.85094310503478        1.06406388147847
C            6.41140878879905        8.85643156118514        0.15784336787129
C            7.78599981311891        6.76006104755865       -1.43771221771769
C            7.58392496136083        6.22282584012411       -2.70699064556153
C            8.46393657641718        6.48984639006595       -3.73172119389749
C            9.56079494304102        7.29972227714333       -3.50985196991138
C            9.77483156492882        7.84120098733780       -2.25720873567615
C            8.89696385640040        7.57440350479716       -1.23061763324287
C            6.88528163506443        4.05063807832616       -0.63657148897164
C            6.26507888137655        2.83172241069129       -0.53446716986738
C            5.02667819386934        0.17074952476126       -0.06499921833530
N            6.33194406526490        0.01596202924456       -0.15508886275313
S            6.65690265835930       -1.59562670303431       -0.19571346243466
N            5.10980344018351       -2.14400068937255       -0.09403761126283
C            4.31253203229985       -1.09819689619501       -0.02103786307296
C            2.87492228579110       -1.12267193927520        0.07120464020369
C            2.17092573123684       -2.42236854956103        0.09260982857418
C            1.13787544397262       -2.70542389697824       -0.80005444269062
C            0.47837773368728       -3.91259371245796       -0.75748094568069
C            0.81722205551346       -4.88982844472014        0.17025811208791
C            0.04721517912596       -6.21984099666891        0.19002301990838
C           -1.45531396411356       -5.93927590879557        0.38450905802937
C            0.26831710828081       -6.95375587553464       -1.14525215142360
C            0.51824179972320       -7.13669032544166        1.33588252687372
C            1.86228914207113       -4.61623100306274        1.04564243775492
C            2.52778032329759       -3.41151341609946        1.00712177054275
H            0.41241481535869        1.01007222018508        0.87355077683031
H            0.33589250637382       -0.74260335291232        0.78624115633554
H            0.24088421679832        0.22080606713386       -0.69259139852361
H            2.32756111230611        2.21021437747398        0.10930026076355
H            3.30598445858630        3.84148682903541        0.72200545110281
H            4.40567381911508        6.00642810956144        0.52221910465340
H            6.52222165234832        6.22650818772772        2.25725184988959
H            5.99358399048863        8.00141079461843        3.87670790889144
H            5.73842067415810       10.32475683702782        3.11118616452571
H            6.00673155190141       10.86883271967973        0.72800642523508
H            6.52154351617327        9.08695758842791       -0.88735956857774
H            6.72092640162059        5.60358657050434       -2.87859758210061
H            8.29532543706795        6.06799336291521       -4.70911503375261
H           10.24758332698703        7.51001355171800       -4.31340339207651
H           10.63012074980999        8.47341971920701       -2.08275295554112
H            9.06177135333709        7.98849644877608       -0.25131104531810
H            7.89719943824589        4.11777144494345       -0.99587864633606
H            6.79414014780731        1.94208588605025       -0.81752586907256
H            0.86904127957562       -1.96871266860036       -1.53717008315276
H           -0.31463356520660       -4.10472683915492       -1.45906495979758
H           -1.85874538781043       -5.34704444098823       -0.43534908227529
H           -1.62767909523769       -5.39151970599128        1.31041650403951
H           -2.02199416320866       -6.86864663083147        0.43184153935950
H           -0.09218919974889       -6.36183450512105       -1.98533520391724
H           -0.25857275370330       -7.90734069472495       -1.15777098503859
H            1.32786568278525       -7.15106773639163       -1.30488806138879
H            0.38293179855183       -6.65462608700193        2.30357146954844
H            1.56941214711197       -7.39933613822842        1.22235589245027
H           -0.05245576343871       -8.06485752077927        1.34703393190863
H            2.16092788602330       -5.35266135950648        1.77012246271912
H            3.33387445821860       -3.21462984099299        1.69258357519659
