80
 energy: -17.165069734040 gnorm: 0.000322953945 xtb: 6.5.0 (97a52f5)
C            0.53124765779031        0.34987706736224        0.88001471335080
C            1.95596358324648        0.26534512177254        0.45015270202625
C            2.68977908082074        1.46330269196910        0.36877982286707
C            4.02945972806810        1.54123248102102        0.03718097553872
C            4.72887735430858        2.82837479117640       -0.03097405156388
C            4.16139933944522        4.00653551453479        0.47240554382885
C            4.81445343629922        5.21011839745025        0.37797193748204
C            6.07055751693900        5.30389378353615       -0.21932237115422
N            6.74823650423661        6.55957096352352       -0.31495614472297
C            6.52937586756296        7.58169911001909        0.67119640635681
C            6.40288270025776        7.25976020507985        2.02054177700765
C            6.19335032287725        8.24315601129472        2.96120623790146
C            6.10943917291113        9.56631761614951        2.57330882106991
C            6.23732666120620        9.90250954425353        1.23963034220878
C            6.44619493361539        8.92084483344754        0.29712030662512
C            7.65029573871032        6.81845304502791       -1.40334275445204
C            7.35128592559999        6.39571558466832       -2.69641690028024
C            8.21418623816319        6.65554564025428       -3.73742187168222
C            9.39038560596111        7.34251294092169       -3.50748895848805
C            9.70005779866084        7.77083315827611       -2.23125653989573
C            8.83858782359207        7.51268712976747       -1.18878724555522
C            6.64767056246591        4.13585361680041       -0.71428498023524
C            5.99372220553126        2.93451718110297       -0.61744566113673
C            4.70099785380504        0.29477236655579       -0.24815791181586
N            5.96340503367001        0.11639288452932       -0.57688857770076
S            6.21628881414911       -1.49290318805217       -0.80203316489665
N            4.68893004375967       -2.00931115490121       -0.47835392246713
C            3.95644412275935       -0.95622633926520       -0.18337951466259
C            2.55360190022230       -0.95748681684430        0.15319889966595
C            1.82052135020595       -2.23718563612732        0.17967157587656
C            0.57293640085389       -2.38197279975902       -0.43788381333925
C           -0.09981485461178       -3.57682397474609       -0.40173098287969
C            0.44360195125281       -4.68732296890459        0.24416133900597
N           -0.26285675939069       -5.93071321807188        0.28391114829921
C           -1.12661845450033       -6.30627058517550       -0.80130045399001
C           -0.76988113878813       -6.04195502822346       -2.12160632650179
C           -1.59984752463138       -6.40173630317317       -3.15959381298283
C           -2.80016071395278       -7.03388174023369       -2.89935274532497
C           -3.16704445827568       -7.30600599575271       -1.59570496042473
C           -2.33901242339757       -6.94655172674365       -0.55607002485493
C           -0.12495664129920       -6.80854699899127        1.41269774780556
C           -0.03023176333435       -6.29999695921833        2.70607124659057
C            0.09370574816529       -7.14484836617093        3.78616382937863
C            0.12350776922787       -8.51271161719704        3.59591843618308
C            0.02851545302100       -9.03303810619629        2.31984424541228
C           -0.09496283681880       -8.19011003458727        1.23823821463658
C            1.69581538907828       -4.55360558274761        0.84418928246230
C            2.36939483573527       -3.35910417632956        0.80901652363982
H            0.38774066392538        1.15863514817849        1.59770188598350
H            0.20604909564974       -0.57123804750450        1.36443717358121
H           -0.12324737676033        0.54184108712416        0.02922287549688
H            2.15256807301246        2.37128135443889        0.56774812279870
H            3.20395665805125        3.97304956757548        0.95945581546832
H            4.35503198807584        6.10548130810599        0.75835483854058
H            6.48076682110053        6.22887320045758        2.31875227121311
H            6.09613077312230        7.98056514051976        4.00195671178192
H            5.94493075770874       10.33526346080841        3.31033467505756
H            6.17214917611659       10.93464750112784        0.93625500695272
H            6.53921195366505        9.17544707760596       -0.74411304121462
H            6.42799934765056        5.87187165010533       -2.87182684237425
H            7.97063081785596        6.32396556289870       -4.73357097403597
H           10.06528884369075        7.54533667673951       -4.32290130513291
H           10.61729278638700        8.30732215420003       -2.05123308995550
H            9.07645628516675        7.83886656543748       -0.19143227770220
H            7.62438160720056        4.18807102164044       -1.16225384351510
H            6.46175729855506        2.04761248900918       -0.99747774798580
H            0.15158139396357       -1.54508203044428       -0.96665326208015
H           -1.06533295982118       -3.66894658769037       -0.86719202414979
H            0.17095548303158       -5.55872546620797       -2.31902606757956
H           -1.31222569949618       -6.19075057957834       -4.17660978862249
H           -3.44936278333141       -7.31489422431062       -3.71243384679817
H           -4.10325503938327       -7.79950809953863       -1.39197730301103
H           -2.62329367821956       -7.14859440320836        0.46173322047865
H           -0.06587613928749       -5.23430168441466        2.84988266828588
H            0.16576091616630       -6.73843254079662        4.78176827802341
H            0.21999811370772       -9.17324541010141        4.44204509639435
H            0.05130322893273      -10.10018805070082        2.17061983885473
H           -0.16236253203210       -8.58910502364826        0.24130145156204
H            2.13441257873969       -5.40968260245783        1.32601767091974
H            3.33707669170370       -3.26952857847999        1.27084542853332
