41
 energy: -8.541153412237 gnorm: 0.000562559301 xtb: 6.5.0 (97a52f5)
C            1.44098519763382       -0.74473466355875        0.50867848611032
C            2.45058010535840        0.17726929888650       -0.09434115994687
O            2.68263755863906        0.13058566643079       -1.28296106615681
C            3.15654962842481        1.13910382946505        0.77379809116249
C            4.05930582620304        2.03001660057625        0.20163866241453
C            4.73497133340238        2.94515703633316        0.97076213517488
C            4.53057603251452        2.99914681921784        2.34797296308466
N            5.20080466825712        3.92680139340221        3.12329037551181
N            5.03049432410029        3.98162571880491        4.35199944144479
C            5.68104502284522        4.92947190647264        5.11880123187372
C            5.48664627374407        4.98545725084539        6.49881799706042
C            6.12088210544725        5.93694028364814        7.25645369198456
C            6.96713377042506        6.87923266080634        6.66418017407132
N            7.60786519131271        7.84685827698070        7.45811822455297
C            8.18161079252283        9.07630505154636        7.05734701115847
C            9.20196751863263        9.65032516101231        7.81582092865559
C            9.76333877254411       10.85136234191404        7.44622698268449
C            9.31130264203085       11.51052558301892        6.31988758807961
C            8.28802868072178       10.96705658511485        5.56838563833253
C            7.72547649296516        9.76554165680965        5.93391535958218
C            7.17670235019573        6.80296276626000        5.28464600893496
C            6.54412039338969        5.84951801028629        4.52872008357768
C            3.63196511227669        2.10600008345435        2.92402028273620
C            2.95590299970909        1.19197867330858        2.15323810927580
H            0.97804787429630       -1.35119509355285       -0.26874138387071
H            0.65054092020605       -0.18750462553714        1.01121381956127
H            1.90496249041810       -1.41964681342530        1.22769072808308
H            4.21799562169875        1.98871751082580       -0.86237916141478
H            5.42936785091509        3.63329076003882        0.52130343358734
H            4.82784129633888        4.26957624464979        6.95802357583728
H            5.96039203832627        5.97723396797497        8.31945878028969
H            7.66401998616808        7.63707778001271        8.45046406195518
H            9.55458206108178        9.13369668558978        8.69119932163085
H           10.55741459840213       11.27831963761949        8.03663456654324
H            9.75187900867816       12.45066318423101        6.03147310233107
H            7.92517122267571       11.48759782941273        4.69728665387100
H            6.89973927023249        9.36479660957241        5.37349839895959
H            7.87203046289860        7.48030647291309        4.82256474594296
H            6.70770565985626        5.79330158158109        3.46743779519126
H            3.47741114572687        2.14734679817973        3.98747642435900
H            2.26636569878097        0.50949347887481        2.61807789577890
