33
 energy: -4.969559919507 gnorm: 0.000932532614 xtb: 6.5.0 (97a52f5)
C            2.31488393733767        1.26949434209571        0.49926716780333
C            1.10487400442097        0.46473497632411        0.20370970497662
C            1.20045591659979       -0.90447698277638        0.09082291836441
C            0.07677339641256       -1.66597585614858       -0.18329280456250
C            0.14627211067114       -3.13546109780546       -0.30762143007386
C            1.05610490176080       -3.91263537367574        0.46435641487185
C            1.11791051676449       -5.27318916030277        0.35382117709418
C            0.27740422417549       -5.90702870570855       -0.52779754850178
C           -0.16597490080610       -7.06448168620755       -1.08866630473451
C           -1.15640753761456       -7.12850886709120       -2.03608365331717
C           -1.98448946199176       -6.17522432993162       -2.70570880331501
C           -2.20121505596256       -4.81007192618342       -2.74179137509563
C           -1.63386326951754       -3.75222889290667       -2.06776745982109
C           -0.65837028782238       -3.81490497011878       -1.14733988711407
C           -1.12181774847692       -0.99049516564641       -0.33699482163905
C           -1.17370245743566        0.37973020068857       -0.21150036220272
C           -2.46524964474095        1.09021914192691       -0.37192765565989
O           -0.07013291627832        1.12027116446276        0.04831132321717
H            2.81666488144144        0.90613981193524        1.39543048226222
H            2.04071246474615        2.31025136647318        0.66546101182167
H            3.01905755345902        1.23261007975519       -0.33125279382469
H            2.15758905486569       -1.37982795420324        0.20254401092091
H            1.69727733463642       -3.40834822871614        1.16611785755789
H            1.80528965460038       -5.85133848866706        0.94589741856604
H            0.29952268130215       -7.97745950040195       -0.75570932052369
H           -1.35981843516584       -8.14378026301702       -2.35303398114889
H           -2.64633629767871       -6.68492342407040       -3.39873348045354
H           -2.96803579830079       -4.48902610245223       -3.43267385568370
H            0.04196322401142        2.83017884531420       -1.36457016429013
H           -2.02064803865106       -1.54084471836870       -0.54680885603508
H           -3.25267810424043        0.60768824013560        0.20573641210304
H           -2.76873030065162        1.11178424772811       -1.41770689874098
H           -2.37311599988734        2.11748910157935       -0.02286441893279
