43
 energy: -9.336280863125 gnorm: 0.000457294237 xtb: 6.5.0 (97a52f5)
C            0.87249881169951       -0.07369818702793       -0.10230071584034
C            2.36097932268160       -0.11308285513783       -0.04892726726973
C            3.09235370578628        1.04061242329772        0.03297279209858
C            4.48986138233114        1.01230581854569        0.07855193166759
C            5.25510891161945        2.27187199723925        0.14560926173344
C            6.58543237682236        2.28399216470751       -0.26709779334374
C            7.33156370887640        3.44094804237348       -0.22790136414119
C            6.76447867035273        4.61217232581198        0.23190663799180
C            5.45109613996984        4.61915382396381        0.65699206294452
C            4.70252050312093        3.46305934159885        0.61761338418043
N            5.17978366659496       -0.12580878224748        0.03890773878378
C            4.47997909564086       -1.26210666346938       -0.04269353061001
C            3.07511581844180       -1.32344092367677       -0.09234108825091
C            2.41983720850387       -2.59861999715109       -0.19662427844453
C            3.11108733836635       -3.75785256973847       -0.24848059660634
C            4.52748905945692       -3.71834570581899       -0.19496184566435
N            5.38966913562243       -4.73179799800294       -0.22737060481093
C            6.62052982488547       -4.17405358160953       -0.13698536718492
C            7.87000151187674       -4.94706521619957       -0.13174955328811
C            9.10652842289409       -4.34480907042900        0.09045903279696
C           10.26240090597832       -5.09488193569610        0.09296799026362
C           10.20634585501409       -6.45681918364354       -0.12657998393988
C            8.98894659324335       -7.06889088504465       -0.34748400297063
C            7.83215531682781       -6.32083675509901       -0.34847989544621
C            6.51679224786902       -2.78849724540037       -0.05404700547476
N            5.18736156391088       -2.48968955662302       -0.09151682973380
H            0.49954811587418        0.94842622035366       -0.02867535081865
H            0.43746258072490       -0.64216578006168        0.72041330912501
H            0.50470300131832       -0.49245031461587       -1.03964536705487
H            2.57892328988065        1.98413362525662        0.03649907693021
H            7.02255260184790        1.36728255396733       -0.62250803821450
H            8.35796985414464        3.43170028718270       -0.55645445660802
H            7.34705839723921        5.51836443741098        0.26243939203977
H            5.01075461784003        5.53203058892299        1.02369161996459
H            3.68813198720544        3.47523867988718        0.97475753747403
H            1.34522117332495       -2.62274867845409       -0.23779148708336
H            2.61408903183071       -4.70768791090286       -0.32884260614160
H            9.15534788570734       -3.28482189884330        0.26702377223416
H           11.21259225181712       -4.61728478887068        0.26806237897004
H           11.11178575133224       -7.04141669753167       -0.12461104095029
H            8.94331055655145       -8.13198725254047       -0.51865226091349
H            6.87964972632045       -6.79152057755420       -0.51802845245835
H            7.31153207864592       -2.06651131912830        0.01534286407031
