30
 energy: -4.472680290998 gnorm: 0.000444318627 xtb: 6.5.0 (97a52f5)
C            2.40744594688393        1.15428252049078       -0.14655661184010
C            1.16704243028550        0.34584926128701       -0.07000096850932
C            1.23333509419012       -1.02874496046248       -0.11561284604591
C            0.07669542676541       -1.78536061681193       -0.04439973104445
C            0.12026651752036       -3.26910371468747       -0.09277343012866
C           -0.37173302376063       -3.93444099421882       -1.21277965355761
C           -0.33699443294392       -5.30640768595422       -1.29355224477485
C            0.19195324758173       -6.04125704428603       -0.25643162505655
C            0.68104955107156       -5.40128115277431        0.86192899019554
C            0.64792535107369       -4.02139900874977        0.96957320160654
C            1.19459428722306       -3.36212715790371        2.18697674235716
C           -1.12503801444717       -1.10778078388793        0.06571048154574
C           -1.14431071101697        0.26848023846540        0.10945067601203
C           -2.43317858510533        0.99236552675592        0.22422549513312
O           -0.01005065408376        1.00507482399265        0.04481455753987
H            3.07280199197696        0.92737068452653        0.68621936140135
H            2.16267814589923        2.21533372132364       -0.10689988871745
H            2.94032567464175        0.96414266403424       -1.07801886067888
H            2.18478048954348       -1.51869683405067       -0.21505646399440
H           -0.77516171237324       -3.35591928325078       -2.02591560453702
H           -0.71953606570942       -5.80557556913486       -2.16884896581832
H            0.22413518749586       -7.11671812373562       -0.31932471716275
H            1.09749963195471       -5.97931180912992        1.66894109004092
H            1.01449067999304       -3.96927677024732        3.07428786069493
H            0.72809840011900       -2.39138848812439        2.35385924635987
H            2.27006539002163       -3.21097753864074        2.09405515252096
H           -2.04467670661559       -1.66145466407624        0.12101336949169
H           -2.99667909876774        0.65431513718251        1.09362031126944
H           -3.04407193701874        0.84047719900746       -0.66529981165627
H           -2.25057250239784        2.06103042306467        0.33178488735380
