93
 energy: -19.916124713364 gnorm: 0.000315810279 xtb: 6.5.0 (97a52f5)
C            1.89927681665888        0.41013947836887        1.63653966931164
C            0.73527841429241        0.25239416428087        0.71916087826931
C            0.05608102981060       -0.94897432384167        0.71205848178603
C           -1.00492615777769       -1.19670448145500       -0.15893114025359
C           -1.70513555075345       -2.47995617111979       -0.14484620246005
N           -2.60764698250204       -2.69355296130679       -1.09582462387631
C           -3.21065581293797       -3.87290179290551       -1.03614074566263
C           -4.19915326103213       -4.17901901892502       -2.07610486818278
C           -4.88583258370786       -5.39180561160682       -2.07240046973110
C           -5.80708495246996       -5.68099030630149       -3.05328723267092
C           -6.06030843743161       -4.76555447462562       -4.05662950091843
C           -5.38902279857307       -3.55815410118128       -4.07497960954550
C           -4.46781962779812       -3.26656475597796       -3.09479910459048
N           -2.99234491100768       -4.79756046945527       -0.10981901672810
C           -2.07861993388747       -4.47348425902257        0.79644209217306
C           -1.81053854192736       -5.44640659766980        1.86135536719875
C           -2.50177349315686       -6.65558506482902        1.91237777445017
C           -2.26057325932411       -7.56152767334800        2.92006424130239
C           -1.32491533692672       -7.27791253497500        3.89620591370722
C           -0.62984347713935       -6.08441546380554        3.86013971862146
C           -0.86930700745428       -5.17698437941101        2.85329008051822
N           -1.39435605151549       -3.33786227104986        0.82059095001715
C           -1.38123695898935       -0.18838696910267       -1.04341559618159
C           -0.73961135998350        1.02211259167836       -1.03413228820344
C            0.31612857022681        1.28282692057156       -0.15279919096839
C            0.93855832525195        2.62357769635238       -0.15672131920838
C            1.20672415139701        3.29198501351963       -1.35156642704312
C            1.76014425847414        4.54595057347631       -1.33929640657093
C            2.07456281005836        5.18659192673552       -0.14415555661618
C            1.81067320566066        4.53691148614248        1.07493035058577
C            1.24542897206727        3.27960846733024        1.03521812603517
C            2.24737236255260        5.08826835029248        2.44597709625963
C            1.36839268842077        4.50746701992525        3.57106440585230
C            0.02009382404742        4.66875276875251        3.80896500920770
C           -0.55479043673002        4.00644717334026        4.87741829256481
C            0.20850872998361        3.19191826844045        5.69808709275562
C            1.55886420347235        3.02667502643121        5.46670006913451
C            2.14050181066436        3.69029595002496        4.39672746447219
C            3.52733896664612        3.68551628713409        3.91746335529232
C            4.64493910541821        3.01850531309575        4.39817386560016
C            5.84827456979628        3.17135022955982        3.73894769638092
C            5.94043071989959        3.97354217898329        2.61320960260480
C            4.82876919858389        4.63604973038455        2.13256520879888
C            3.62619634377377        4.49703622644573        2.78864322212191
C            2.24767818180375        6.54924155769244        2.50317719928227
C            2.23329683289322        7.91038347087366        2.55614444562935
C            3.47594927217087        9.73872953246140        1.29646878072318
C            2.63917060363992        9.83977925773637        0.24153947962598
C            1.62229898832784        8.90958259061674       -0.20720288942026
C            1.75484061451160        7.59296513273744       -0.29889650568108
N            2.63060359896530        6.53834825303104       -0.22653157569888
C            3.95437021060649        6.72007795367256       -0.32840733959199
C            3.44653175316428        8.79581456230332        2.48220990292795
C            4.73505081134665        8.03172321309917        2.70637678887010
C            5.73401279674746        7.78905280530006        1.84241384988953
C            5.79408716406641        8.13830660455586        0.42648969267563
C            4.97191732125419        7.64094075828834       -0.53564933561255
H            2.43640739386697       -0.53237392369863        1.74862120887568
H            1.57623818202182        0.72549876994297        2.62914339565475
H            2.61162738935837        1.14232008773423        1.25547849159739
H            0.35601837388708       -1.72841808751192        1.38838754544401
H           -4.68212267900802       -6.09984888857172       -1.28855613262539
H           -6.33055098798051       -6.62285873570064       -3.03936043752452
H           -6.78050739575140       -4.99348700591157       -4.82520162864638
H           -5.58576136525469       -2.84463395671161       -4.85825448769302
H           -3.94018292987379       -2.32916388800836       -3.10286455313188
H           -3.23118956719400       -6.86757836675011        1.15063285007642
H           -2.80329008982800       -8.49210828607076        2.94864679356461
H           -1.13835002847111       -7.98678959163065        4.68614090660276
H            0.09897919416582       -5.86289811960983        4.62244052128449
H           -0.33430480245930       -4.24429318620118        2.81998137474399
H           -2.19456118809199       -0.37206123954388       -1.72324627426651
H           -1.06427974626395        1.80282142375473       -1.70005377922185
H            0.98418465342658        2.80801692148975       -2.28659889305807
H            1.96264350781523        5.05928329116597       -2.26334618150043
H            1.01849804603923        2.78719703093296        1.96189450243002
H           -0.56394286242423        5.29916759651056        3.16169575667204
H           -1.60817048064238        4.12360124821299        5.07195453973639
H           -0.25653673904975        2.68158862792354        6.52547191404002
H            2.15900320024015        2.39445799347160        6.09693879330142
H            4.56301737392814        2.39254328987597        5.26904630355667
H            6.72421399510655        2.65974819858085        4.10258467944765
H            6.88583529356578        4.08222824235276        2.10768929852982
H            4.87648838402218        5.26355821595409        1.26247640183859
H            1.26996121409900        8.39732104566293        2.55716487229721
H            4.23674809417563       10.50029243472305        1.37849208391810
H            2.74278501782307       10.72925665856543       -0.36585652411562
H            0.70194293898282        9.33240836491007       -0.59182827960759
H            3.35356743777920        9.46277813253949        3.36165726509098
H            4.84677607941387        7.63626015591571        3.70442800241933
H            6.60341497456976        7.27633412655008        2.23287922459498
H            6.57721443352928        8.81649918860036        0.11900424910712
H            5.10366539073571        8.00664737875393       -1.54635302255363
