84
 energy: -18.437940881297 gnorm: 0.000541694661 xtb: 6.5.0 (97a52f5)
C            2.11758955033701       -1.66846960170604        0.26873022126020
C            0.63580105019283       -1.73819043224438        0.17260054173941
C           -0.04692205504545       -2.78909522447488        0.75194769756249
C           -1.43113546532726       -2.90843441136524        0.65210271593328
C           -2.13709345389917       -4.03891928422499        1.27429572560801
N           -3.43347850571190       -4.15335825721721        1.03001545338130
C           -4.01740464307876       -5.18732786512918        1.61411488854261
C           -5.45706745945068       -5.37816857147101        1.36554258230527
C           -6.14561424199461       -6.44138998704555        1.94242069255960
C           -7.49045607191755       -6.62047235585142        1.70441217707808
C           -8.17135441275518       -5.74086838280332        0.88569083601796
C           -7.50276627553557       -4.68090490924573        0.30553555788076
C           -6.15810496460269       -4.50074226153899        0.54308414941551
N           -3.41263578861697       -6.06350067700283        2.40098124716732
C           -2.11829962004709       -5.84729793845849        2.57690390957691
C           -1.38859905297569       -6.78273664790667        3.45060716578080
C           -2.03888303826991       -7.86681384924065        4.03313752697643
C           -1.35832533093297       -8.73601487249766        4.85679597539505
C           -0.01582287592017       -8.53763744142824        5.11308459027835
C            0.64430149076286       -7.46714218045600        4.54239713542495
C           -0.03529881228498       -6.59740065476376        3.71849960846247
N           -1.42661723209150       -4.85751167881420        2.03485711512932
C           -2.13244566869184       -1.93420599632084       -0.05204558896387
C           -1.47310445731203       -0.87520283616438       -0.62273521527511
C           -0.09046010525386       -0.75298361044337       -0.51440035804274
N            0.57046337629222        0.37475338672026       -1.11607105159602
C            1.27285754013398        1.39863044316716       -0.44529481970353
C            1.54244830714964        1.58182580401384        0.91032011307333
C            2.24854764597961        2.69390184388132        1.29874484198736
C            2.68700278480396        3.63267009440984        0.36055007494418
C            2.41921510629287        3.47340033230450       -0.97820053473642
C            1.70281393801606        2.34822340354598       -1.38793967252911
C            1.23922558161469        1.90873558549065       -2.68359203585519
C            1.35371142302334        2.46831903818841       -3.95752202048782
C            0.76865575795483        1.80334341208049       -5.01102216455020
C            0.07477507756230        0.58492567708281       -4.81216623813491
C           -0.04155690099699        0.02898554936949       -3.56038912341504
C            0.54305452346087        0.70065338327442       -2.48748433428037
C           -0.50925846485447        0.02233872020156       -6.10665831735885
C            0.66523277943297       -0.10941874913453       -7.07508325270560
C            1.07474607784236       -1.25508586564929       -7.73066063676253
C            2.16250007574300       -1.19821198816931       -8.57965300496810
C            2.83828233670240       -0.00742818516223       -8.77510812402940
C            2.43539398945916        1.14174067574630       -8.12361200933641
C            1.34791805393811        1.09306436722501       -7.27201131460752
C            0.75714728979195        2.25284124478480       -6.47138032703729
C           -0.71618692371768        2.33016248658263       -6.87141214361291
C           -1.38316386195753        3.43145367543663       -7.37385870688882
C           -2.72674544859200        3.33015533887920       -7.67729432422038
C           -3.40243769268903        2.13941754028556       -7.48118891492826
C           -2.74337042117714        1.03425118653558       -6.97984977294489
C           -1.39871741207159        1.12739708798129       -6.67454753551006
H            2.56928365861448       -2.62944051422968        0.01950600800986
H            2.43050990684624       -1.40047719842777        1.27838530275158
H            2.52210748583908       -0.92548776568136       -0.41906539902313
H            0.49992146074119       -3.54345668105550        1.28752503026041
H           -5.60857340446307       -7.12288774139838        2.57845492804757
H           -8.01195661743291       -7.44786589007867        2.15715806267898
H           -9.22363700434905       -5.88121229263000        0.69961104326263
H           -8.03300410520623       -3.99486266315593       -0.33470035133931
H           -5.62991983436046       -3.67829993206678        0.09360749771696
H           -3.08528937203167       -8.01308991184503        3.83048448252223
H           -1.87421940835596       -9.57073781114377        5.30254277400993
H            0.51592352823226       -9.21733874972788        5.75872430127453
H            1.69182317690242       -7.31153635935365        4.74256141447655
H            0.47225626257116       -5.76093293272371        3.27097662805990
H           -3.20141134282246       -2.02189473309886       -0.13496457210999
H           -2.01797929228188       -0.11728091125135       -1.15796172748302
H            1.19186794884558        0.86006549401132        1.62618931314695
H            2.46683344258423        2.84715439939410        2.34281778917493
H            3.23964186501553        4.49583351142699        0.69339893838893
H            2.74655180771717        4.19556030471076       -1.70507484960740
H            1.87544674244409        3.39495271848134       -4.10785836027819
H           -0.57020889261591       -0.89296718585874       -3.40757554555471
H           -1.04635294120625       -0.92280581637139       -5.95642943627428
H            0.54321914325466       -2.17752832238450       -7.57360152329668
H            2.48640513493095       -2.08852473135438       -9.09342734378721
H            3.68560583128380        0.02443123008378       -9.44038512004662
H            2.95539443209012        2.07240064396585       -8.27044679082491
H            1.29244082295634        3.19747424457591       -6.63103769190543
H           -0.85124853510364        4.35516628663965       -7.52183650834474
H           -3.25237143042487        4.18584682788163       -8.06852232316186
H           -4.45118650515133        2.07306550279259       -7.72046638141640
H           -3.26182106364316        0.10435141925625       -6.82297059032603
