68
 energy: -14.432552928492 gnorm: 0.000430925751 xtb: 6.5.0 (97a52f5)
C            2.86180904951105       -1.81903409589545        0.64408349292589
C            1.61951260390842       -1.71655900374002       -0.16790577221630
C            0.52448119921636       -2.49144874218711        0.15233231391893
C           -0.65409697212784       -2.44041786469883       -0.58901191694362
C           -1.80722014901099       -3.27772171537085       -0.22749069928604
N           -2.85011970395155       -3.25991072412905       -1.04390923031835
C           -3.85601770262419       -4.03570596300785       -0.67254835767698
C           -5.04211723878023       -4.06949801478913       -1.54521913376404
C           -6.13048539076627       -4.88067509436999       -1.23662845109075
C           -7.23896459865174       -4.91222162083870       -2.05338759893784
C           -7.28021303279417       -4.13373060673879       -3.19335677740737
C           -6.20834132534433       -3.32401539568701       -3.51430909561358
C           -5.09901274158644       -3.29223316410719       -2.69867254530107
N           -3.88321395455609       -4.78297250714341        0.42007403633783
C           -2.78944904140557       -4.71670420108400        1.16335481129577
C           -2.76195330169213       -5.51864593417042        2.39861006652885
C           -3.83587251697823       -6.33586883950641        2.74035301607539
C           -3.81318407550666       -7.08050454214477        3.89873876629640
C           -2.71728382831319       -7.02170014146631        4.73712135734737
C           -1.64332971100513       -6.21622413756589        4.41243016863141
C           -1.66463101859352       -5.47170317710113        3.25386981876351
N           -1.72018610474489       -3.98659891038915        0.88807389013662
C           -0.71591574129682       -1.57771024728958       -1.68003060585871
C            0.35844934596738       -0.79385172287820       -2.01270125814584
C            1.54094233471190       -0.84705311910623       -1.27378281160174
N            2.65124494744859        0.00800923199926       -1.64977016404545
C            2.62702289181280        1.32899146949813       -1.07190993966363
C            2.19798842507928        1.49998391447801        0.24488575256125
C            2.09851643274199        2.74963128003231        0.81055308354096
C            2.41517075801038        3.86710271389568        0.06775402541388
C            2.82080837329540        3.72327564402597       -1.24329126367984
C            2.91714066956783        2.46995976749101       -1.82540432716657
C            3.38061473957244        2.31766525786400       -3.22965179696991
C            4.74787179928430        1.64004646388641       -3.26801740995861
C            4.70727834994373        0.14615248471758       -3.13373158503582
C            5.71264914711875       -0.55490266015371       -3.78572487632400
C            5.74643221534069       -1.93249118294173       -3.80794466785312
C            4.75336995746766       -2.64127435225642       -3.17338154781893
C            3.75853445448456       -1.96731485584220       -2.50732295947404
C            3.71317187985191       -0.57154989370948       -2.43652631723083
H            3.28010608238253       -2.82464252454458        0.58821622697892
H            2.66190237801800       -1.59734317071328        1.69304860680855
H            3.62351167491497       -1.12205887431820        0.29340886782268
H            0.57713499846709       -3.15715556921981        0.99432318463722
H           -6.09058347805499       -5.48441542317226       -0.34717828591062
H           -8.07477235558228       -5.54471747927596       -1.80264360584766
H           -8.14820908323462       -4.15835623629139       -3.83168373759797
H           -6.23979038526410       -2.71702587008684       -4.40426598078274
H           -4.25916003233940       -2.66596955959933       -2.94332331412845
H           -4.68636480077297       -6.37579685730433        2.08281219680470
H           -4.65162436159507       -7.70870451793140        4.15150623860323
H           -2.70054128660498       -7.60327533561572        5.64434639093296
H           -0.78805870677435       -6.16970866620074        5.06652964920063
H           -0.83210860772457       -4.84166905489334        2.99437018333862
H           -1.62313462637939       -1.53436967321818       -2.25648612073266
H            0.30741656988421       -0.12413140219514       -2.85322242758322
H            1.92871379990816        0.63325348739167        0.82020884681072
H            1.76999561821982        2.85556759313112        1.83158035223939
H            2.34206290556030        4.84826383205530        0.50746763644932
H            3.06807628616678        4.59380249232619       -1.82637895861090
H            3.41747344488768        3.30374264777837       -3.70935605081620
H            2.65199928899252        1.73135260284334       -3.80090747773398
H            5.38654313774103        2.05441765545355       -2.47955758452413
H            5.25070364654995        1.88724283227914       -4.21186287334491
H            6.48027817809280       -0.00235242789719       -4.30085439361095
H            6.53605937427387       -2.44942824200115       -4.32840122731882
H            4.75868196901205       -3.71893246385812       -3.19485494081831
H            2.98856694663155       -2.53470559251706       -2.01754489166574
