75
 energy: -14.471252351363 gnorm: 0.000901679055 xtb: 6.5.0 (97a52f5)
C            1.03554849955924        0.37436667356305       -0.10219771573166
C            2.22556383468719        0.26957248471717       -0.30307761129913
C            3.61936632672820        0.17793212128918       -0.54090814931585
O            4.27568626554048        1.42574282980697       -0.79918707404833
C            5.63594821831451        1.33816579220511       -1.01682794496402
C            6.33416248825516        2.53658943033539       -1.26272136134372
C            7.68137621278408        2.54169100435583       -1.48426206491659
C            8.42350057664242        1.34831733925407       -1.47685322493357
C            9.83664154931814        1.39002009517193       -1.70949187410450
C           10.65816942739015        0.31228251902488       -1.74281217510310
C           12.05500427705520        0.37406080625574       -1.96957727339885
N           12.88106359891484       -0.70331752634434       -2.02869549821573
C           14.18731802394190       -0.35200631353711       -2.25865863524133
C           15.24282880065191       -1.29154507848431       -2.37603256854784
C           16.64195539538068       -0.87409811672528       -2.61037426953007
C           17.27442822448382       -1.10939635964472       -3.84471574090207
C           18.56705412493583       -0.72828363908045       -4.06083416573406
C           19.32210285339681       -0.09185088150786       -3.05340595779984
N           20.64462796597224        0.27711219363318       -3.26447658683753
C           21.29370654487378        0.23961921697227       -4.59466584140447
C           22.22217432784106       -0.97295856412783       -4.70500322040051
C           23.27896109371592       -0.93660869426456       -3.58668101978748
C           22.61337761028517       -0.80009290000778       -2.20484571515385
C           21.64475565586040        0.38993516727233       -2.17238928248572
C           18.68316175786139        0.14441103187379       -1.81819712167213
C           17.38810460619799       -0.23090112223988       -1.60596832443451
C           14.87852587231861       -2.65620120226305       -2.25359274062552
C           15.66769962310870       -3.84396510879804       -2.26448262746159
C           17.13849289279605       -3.94953109622343       -2.42683588241978
C           14.80408632506529       -4.91137772627420       -2.08611191364413
C           13.49067213268486       -4.42046217830793       -1.94563414770902
C           12.25175392434642       -5.18613855609791       -1.70908145805818
N           13.57791674447463       -3.08891139936138       -2.04320241542989
B           12.37606216705775       -2.14631257495318       -1.89836718094424
F           11.80263504571705       -2.32074195293745       -0.64492758766461
F           11.46470134326246       -2.40740550156477       -2.91414362540189
C           14.18074207826888        1.08253710312163       -2.37694434198845
C           15.34046869451585        1.96766139500164       -2.64448724910747
C           12.88867005008274        1.50851878938170       -2.18743291709917
C            7.72955430294591        0.14966285469011       -1.23456842171425
C            6.38117852743313        0.14217742922267       -1.01191263766278
H           -0.01030992550249        0.46904245038991        0.08024844223819
H            3.80017510202646       -0.47440466091402       -1.40402066839455
H            4.10798353171496       -0.27766414054698        0.32916213332134
H            5.77459687948323        3.45501625057791       -1.27033236206000
H            8.19223762489719        3.47107755427385       -1.66914835846914
H           10.27294204766830        2.35941794371901       -1.87104956059961
H           10.25137192286097       -0.66965186942795       -1.59288205821520
H           16.71375783864883       -1.59645786183156       -4.62389358207361
H           19.02812610072217       -0.95493014557114       -5.00470336490466
H           21.87046271593289        1.16336721161133       -4.70717410398598
H           20.54284241643035        0.26687288440133       -5.38958140876812
H           22.69396586123638       -1.01776672437948       -5.69621257737680
H           21.62770569299090       -1.88980430451733       -4.61365002505195
H           23.95528269260863       -0.08887011369009       -3.75101017558443
H           23.91496287649902       -1.83198471988643       -3.62473021710746
H           23.36997072174498       -0.70743916402647       -1.41366548266733
H           22.05828025253967       -1.71838977641977       -1.97873113058532
H           22.18778571971203        1.33070877601312       -2.30504856062870
H           21.14597340130180        0.46119380481461       -1.20288407042825
H           19.21081445094109        0.66482700912216       -1.04029201212141
H           16.91666177355991       -0.04468313276945       -0.65647553450279
H           17.65311279285196       -3.20108365572376       -1.82365274939220
H           17.42678917528709       -3.80485272037707       -3.46831145060546
H           17.49660432410147       -4.93129849445247       -2.11503002275767
H           15.09043127249563       -5.94838731947173       -2.04549438323355
H           12.43897640824856       -6.26003324061003       -1.73073116538802
H           11.50806886709598       -4.95231565927607       -2.47132450004737
H           11.82592496792564       -4.93167270711298       -0.73819784389728
H           15.01279716357243        2.94004229240186       -3.01357591613013
H           15.92141091752863        2.13319736812229       -1.73690925528963
H           15.99916672850971        1.53366651096547       -3.39692600726691
H           12.56206292886264        2.53334410925408       -2.21146287528614
H            8.26923597988039       -0.78008724021200       -1.22283346354117
H            5.88383079098342       -0.79305629886470       -0.83118012496497
