53
 energy: -10.941985940575 gnorm: 0.000888106200 xtb: 6.5.0 (97a52f5)
C            0.97054388556773       -0.17365955619669       -0.38237106657509
C            2.36940891841834       -0.22188432573935        0.14236776387877
O            2.81652106523552        0.71150121844613        0.77223600424376
C            3.19426737864377       -1.42001992790669       -0.12593429800093
C            4.43529687952540       -1.54118500716431        0.48689862939008
C            5.23330695640579       -2.63955388881676        0.26097319454743
C            4.81602992602631       -3.65775514254542       -0.59085212303067
C            5.62834399531546       -4.78542018841691       -0.82670654684713
C            6.31803187523362       -5.77123821065022       -1.04055198188679
C            7.10042733116593       -6.91464028769553       -1.30098734997379
C            7.04117214536201       -7.54731140926504       -2.53916503564173
C            7.80012340106089       -8.66575628061607       -2.79728458869539
C            8.64750658175493       -9.19538732524534       -1.82537388494849
C            9.46034149765728      -10.40188079658914       -2.10205986407862
C            9.60807124180890      -11.39923687067899       -1.12638643009087
C           10.36979847959340      -12.53684664881514       -1.32925828983610
N           10.54939782394176      -13.46040989120613       -0.27199367681954
C           11.87386363194261      -13.98386804018283        0.08402958874808
C            9.56335427703898      -13.57623637103461        0.80127175394276
C           10.98437539615035      -12.72694997324357       -2.61606768887498
C           11.67345696140217      -13.90474957733219       -2.96053045410487
C           12.25295982629480      -14.05175092676965       -4.18856951464862
C           12.16075461556365      -13.03376442479924       -5.14068294729451
C           11.47197215686022      -11.89257306544984       -4.85889635101685
C           10.85376736174066      -11.71445234354208       -3.60002657243891
C           10.09287842575419      -10.56456879243948       -3.31644567840964
C            8.70527080852332       -8.56025100220768       -0.58569163217212
C            7.94661789917843       -7.44085403436492       -0.32925454303146
C            3.57457799418997       -3.53540150088905       -1.20796010331561
C            2.77716451197769       -2.43681268661012       -0.98151251164371
H            0.44469910998463        0.68717672924839        0.02890712632996
H            0.41360561966635       -1.06863932014216       -0.10397933709386
H            0.96353908429136       -0.08192975848146       -1.46860046642695
H            4.76335918428426       -0.75521897158648        1.14517195601414
H            6.19252973462351       -2.72270658468733        0.74280726577375
H            6.38721399568245       -7.14922469532616       -3.29619909314132
H            7.73373393635416       -9.15188679567081       -3.75518132670322
H            9.13137297841290      -11.25570345412922       -0.17525115146365
H           12.64352670812868      -13.54621101101078       -0.54876607572666
H           11.89340398481079      -15.06719139883121       -0.02106778999151
H           12.10873822415020      -13.73233666628900        1.11674675002556
H            8.55629131269309      -13.50447399672928        0.39529258078436
H            9.70902367920423      -12.78641114389699        1.53583235939659
H            9.66306501380346      -14.53862381301757        1.29949755182070
H           11.71245054442642      -14.71377669746018       -2.25454921921053
H           12.77958891803319      -14.96048964310363       -4.43024986331293
H           12.62537413562689      -13.16002644201356       -6.10481798133697
H           11.38287905108293      -11.11517788548817       -5.59801538155201
H           10.00266241506482       -9.79957073997418       -4.06579469281815
H            9.36433247824218       -8.94837013092163        0.17147360801578
H            8.00065166099568       -6.95725942888291        0.63113074831021
H            3.24442094909045       -4.31740756672436       -1.87040579551296
H            1.82398403198778       -2.35986330690998       -1.47451557356247
