95
 energy: -20.109574720765 gnorm: 0.000699103218 xtb: 6.5.0 (97a52f5)
C            1.57956786719454        0.11702941672494        2.32704072942894
C            0.48506079179461        0.04583764665286        1.31939007745287
C           -0.12317958483978       -1.16502197073160        1.05239654968578
C           -1.15477323036966       -1.28902759989602        0.12284154487732
C           -1.77201801320840       -2.59479436846274       -0.09202554183154
N           -1.56330747563305       -3.62483083658035        0.71717892779712
C           -2.27998607290624       -4.65545694495641        0.21591272320225
C           -2.39774310793954       -5.99909372507883        0.72677242621494
C           -1.73101790114736       -6.38231290334072        1.89258385428538
C           -1.84643292021567       -7.65915271390205        2.37458199044314
C           -2.63163354141473       -8.58286519889322        1.70018994268063
C           -3.29525574238299       -8.22620367654455        0.55250383868814
C           -3.20278582922865       -6.92866667436577        0.02932896651299
C           -3.90255596072419       -6.52183398444613       -1.19474959758314
C           -4.71099575824201       -7.40854541349382       -1.91998697698069
C           -5.35606778718802       -7.01526275676651       -3.06561341624051
C           -5.21985116421286       -5.71790687879356       -3.53624165813304
C           -4.44001818220360       -4.82442193864691       -2.85353267502727
C           -3.77347731092356       -5.19788119925877       -1.68165161037795
C           -2.95201701147322       -4.27133806830336       -0.94702120615583
N           -2.63351255836916       -2.94040224094206       -1.15135270048368
C           -3.04272648370208       -2.12975068442754       -2.27445582062973
C           -4.26355508825163       -1.47187896672004       -2.26545666715611
C           -4.65932842179402       -0.71806367487674       -3.34798906130579
C           -3.85214269531702       -0.59783546193685       -4.47356960432628
C           -4.26501338025921        0.22787918362085       -5.70201608725058
C           -3.23612073280791        1.35106456667077       -5.92925619468171
C           -4.31435460773105       -0.68913903222349       -6.93869601259074
C           -5.65395618106481        0.87042957430238       -5.51953228427174
C           -2.63009568875139       -1.25891763247275       -4.46996492993662
C           -2.22913710144006       -2.01354562770353       -3.39054189791792
C           -1.57197576572233       -0.14141657670577       -0.54797031411469
C           -0.98036589378768        1.07106528938793       -0.30129837900276
C            0.05914727857856        1.19370934027491        0.62342195575710
C            0.67018522746834        2.52397147243040        0.87059420793212
C            2.01671375476377        2.76542396296974        0.58735411572432
C            2.57852118275374        3.99406486286164        0.83130325831767
C            1.82037851475121        5.03276988482732        1.37892212760488
C            2.42379031654899        6.33794210873487        1.65136839738280
C            2.26152482858311        7.16969995632789        2.78804276122602
C            1.55395348315792        6.82377069664105        4.03121124971872
C            1.44366491506937        5.50558506649135        4.47145007898854
C            0.79008460077688        5.20632485928562        5.64609788251644
C            0.24267428566110        6.21753876967116        6.41050642939722
C            0.35630723319960        7.53058991594228        5.99825293415460
C            1.00858940031596        7.83127169407903        4.82252763407700
N            2.89727668900644        8.33800408658796        2.60959179053518
C            3.47074532200557        8.27208376497701        1.40093063911227
C            4.25038751573452        9.25243667676992        0.75298113130656
C            4.72563011754521        8.99487690891146       -0.49471216165784
C            4.44180449251406        7.77092855210284       -1.13587470371750
C            3.69525470799341        6.82676395362699       -0.51541860793951
N            3.21126095227653        7.05501888230431        0.76546217982058
C            0.46882076978936        4.79388135245385        1.64850388634137
C           -0.09363919375602        3.56783293085390        1.39743947401185
H            1.45169685345631       -0.64057809036275        3.10124315817730
H            1.59880580445477        1.08939158359312        2.82045424307239
H            2.55069376788952       -0.04352947119631        1.85752295203612
H            0.20103533377540       -2.04436759421943        1.57852104244047
H           -1.12594730206623       -5.65568577050679        2.40601819371392
H           -1.32933784058426       -7.94643117672810        3.27556025844831
H           -2.71976269376870       -9.58721492660190        2.08159605202194
H           -3.89579403824348       -8.96267498610127        0.05089037793582
H           -4.83382322180832       -8.41977710891250       -1.57798376261299
H           -5.97207226714086       -7.71684914829477       -3.60437051140775
H           -5.72767404165695       -5.41498442620136       -4.43745854759849
H           -4.33381883095879       -3.82021554076961       -3.21820575165781
H           -4.89645784337186       -1.56506804766915       -1.40004230783693
H           -5.61161578512000       -0.21972214700622       -3.31452985756085
H           -2.24278492876006        0.94624737311077       -6.11719973705436
H           -3.17390559726861        1.99828121320742       -5.05496696333315
H           -3.51261872076491        1.96554236920274       -6.78546980531699
H           -3.33931074299922       -1.12703143719995       -7.14696014316092
H           -4.62538095986741       -0.13424527570766       -7.82328344159020
H           -5.02136180107542       -1.50384282857256       -6.78528948735586
H           -5.66425413548819        1.54704831162317       -4.66568193912951
H           -6.42088769713403        0.11101864401549       -5.37050691859789
H           -5.93048234441223        1.44869980131838       -6.40071012134432
H           -1.98495936993591       -1.18080240276874       -5.32765401625158
H           -1.28262470590210       -2.52536286449888       -3.39843924852998
H           -2.37200636495651       -0.20809041240482       -1.26008714228161
H           -1.31032827757750        1.95017665599795       -0.82792656610409
H            2.61052187564413        1.97093989591393        0.16934550498266
H            3.62083076889214        4.16396094038496        0.62452651613237
H            1.88356123814709        4.71840502950079        3.88494120206759
H            0.70668728590894        4.18144879256317        5.96923545115449
H           -0.26870659562853        5.98250711397756        7.32972967835625
H           -0.06421098596533        8.32111927741139        6.59816074809776
H            1.10565535462055        8.85312299124604        4.49958204955628
H            4.44996839763136       10.18398201523986        1.25139892186031
H            5.32038803136217        9.73438559053616       -1.00551162333794
H            4.81786195195532        7.59256274115578       -2.12969763479867
H            3.45490718831017        5.89633587671231       -0.99630031742756
H           -0.12790064524090        5.59059722817653        2.05802268935308
H           -1.13241997469732        3.39177158467408        1.61795120902434
