50
 energy: -10.886441445756 gnorm: 0.000169454621 xtb: 6.5.0 (97a52f5)
C            2.44100992286015       -1.04385899755996        0.80656480979046
C            1.17463594491437       -1.05167661708923        0.02835123824142
C            0.18569147397330       -1.96865387788597        0.32410276091341
C           -0.99499908740370       -2.02911972437172       -0.41051176105550
C           -2.00887053929255       -3.03465830179997       -0.11937842003906
N           -1.95152069425604       -3.90403699826989        0.89435311217120
N           -3.00744341704095       -4.66092415165365        0.84186474758485
C           -3.74305347477817       -4.28076669045279       -0.20683749086593
C           -4.99856032325577       -4.90264725809471       -0.61248381556235
C           -5.54154499654230       -5.96009711639708        0.11050952470113
C           -6.72123879236616       -6.54721155711034       -0.28923035790206
C           -7.37535265419001       -6.08827340494705       -1.41593186503502
C           -6.84695542479985       -5.03894366298485       -2.14224756775266
C           -5.66761235230831       -4.44970965109169       -1.74421027692985
O           -3.14320739257833       -3.23741025508347       -0.84493934931977
C           -1.18174744492170       -1.13105243875918       -1.45479717874258
C           -0.21608221369716       -0.20282322967461       -1.75299850393204
C            0.96787167685940       -0.14496465125742       -1.02284044640743
N            1.98274967175854        0.80749722563714       -1.39013226962552
C            2.49100649725136        1.85998976891739       -0.60005618254285
C            2.15241954979113        2.28349892973409        0.68449234389018
C            2.82854844471384        3.34793711287452        1.22817245739518
C            3.83477290656501        4.00396972458987        0.51302408940693
C            4.17346141932480        3.60655911476706       -0.75786157337081
C            3.49502951053125        2.52607418797453       -1.32405838732229
C            3.60192465178058        1.87549380482194       -2.60858621021463
C            4.41649957780854        2.10663601545353       -3.71848436699542
C            4.27989076919422        1.29236456889577       -4.81701360713587
C            3.34811978734973        0.25023630940524       -4.82966574401999
C            2.54051680108182        0.01030526148757       -3.74542661034124
C            2.66332294138606        0.83028595797277       -2.62469570790058
H            2.79714879297181       -2.05939036284662        0.98283037050433
H            2.29974476590877       -0.56347233039484        1.77511327484775
H            3.22598343870803       -0.50699110785186        0.27356085499851
H            0.33355698919409       -2.66660863930493        1.12783190329623
H           -5.02422210158831       -6.31299991101714        0.98537697390368
H           -7.13370289738044       -7.36633004053744        0.27674937698805
H           -8.29754500822036       -6.54963869692356       -1.72907602844092
H           -7.35683601197967       -4.68216972117775       -3.02208979920548
H           -5.24541633613781       -3.63336079475186       -2.30461002101677
H           -2.09240839692977       -1.18015089186962       -2.02654189821286
H           -0.35886584364087        0.49287607104163       -2.56122180983855
H            1.37159987959231        1.77835541287034        1.22425500796678
H            2.58050596093572        3.68385958384841        2.22148968443701
H            4.35065508943964        4.83475731692152        0.96546584056940
H            4.94455342971741        4.10788958288894       -1.31547517588913
H            5.13284052510336        2.90868880635595       -3.70082670830261
H            4.90049039624782        1.45781550153450       -5.68218346068720
H            3.26304147112155       -0.37369917961971       -5.70404763887702
H            1.82285311723470       -0.79039999723895       -3.74441813818826
