62
 energy: -13.311714946964 gnorm: 0.000731801975 xtb: 6.5.0 (97a52f5)
C            2.28864040890731        0.24122271641335        0.81642852668881
C            0.81239514355489        0.42963378546003        0.75821100339801
C           -0.03030474202505       -0.63791204385658        1.00146939547823
C           -1.41327123852924       -0.50124971565948        0.95747980955260
N           -2.26816141600742       -1.62976745635906        1.19880833490299
C           -3.33134522559213       -2.05536650272517        0.37453424272197
C           -3.80799738768673       -1.55168629314650       -0.83474197016704
C           -4.86319280951960       -2.18475604376566       -1.44380315571801
C           -5.45301942248683       -3.31450809867005       -0.87135706001850
C           -4.99316909965358       -3.82642578284914        0.31770035130686
C           -3.92140490156938       -3.19386583957821        0.94785268293409
C           -3.20640700268313       -3.47814969345852        2.16891097465657
C           -3.36299743685816       -4.46788839969211        3.13650817090142
C           -2.51920811054950       -4.48067911947813        4.23278988535037
C           -2.66278744813779       -5.46694352455067        5.22224764732513
N           -2.78006761708297       -6.28207767112834        6.04039094254555
C           -1.52060495604282       -3.49608091089102        4.35563269632325
C           -1.35559548761385       -2.51750638478717        3.40956696730311
C           -2.19960931135944       -2.50688335142045        2.29968140800560
C           -1.95404863768193        0.74584172629677        0.67223898044422
C           -1.13402727840815        1.82130210988635        0.44073884646306
C            0.25418424923734        1.68985925196549        0.47902336706825
C            1.11032962501060        2.87555966496993        0.21602068504335
C            1.80314718778044        3.47816608949592        1.26563713961334
C            2.58440089803715        4.59067002582151        1.04750022388302
C            2.68116365383054        5.12151413147614       -0.21595705851134
S            3.69336059625216        6.57916673714430       -0.49111736042051
O            2.78195481677785        7.73513829839543       -0.84643537307600
O            4.68570189144252        6.71923702726157        0.64450996488374
C            4.56656830464248        6.01974664166420       -1.95510434585474
C            4.28916465103658        6.59084972660889       -3.17498730318281
C            4.94795463329633        6.15277299258058       -4.30654905949147
C            5.88405423530581        5.14308829025471       -4.20837183445164
C            6.16226187779126        4.57431565532740       -2.98164448901151
C            5.50090380656217        5.01559374131852       -1.85270839356195
C            2.00665980164814        4.54222449224257       -1.26584284688919
C            1.22692409308532        3.41306802769081       -1.07772896449159
C            0.51113711824416        2.80596673970505       -2.23297728995460
H            2.56545085209707       -0.78061096729524        0.55523447567723
H            2.66529000179971        0.44623752116649        1.81885212716946
H            2.79811805067344        0.90823211444126        0.12048099778429
H            0.38669884581309       -1.60534388300718        1.21334411130140
H           -3.34136571532530       -0.68985654302356       -1.27658301090359
H           -5.24236953458157       -1.80605666777622       -2.37859639377881
H           -6.27878325192643       -3.79229791648135       -1.37214835835909
H           -5.43858128133927       -4.69881064369354        0.76183098880938
H           -4.13306829532461       -5.21009030253681        3.03399973172342
H           -0.87888260778850       -3.52175339750124        5.21952843801391
H           -0.59925458459636       -1.76062954115847        3.51337636053507
H           -3.02367732314129        0.85850236609849        0.65368089230030
H           -1.55676609131766        2.78857628866542        0.23006760484139
H            1.71174395018120        3.06509317269760        2.25522723996630
H            3.12202692095630        5.05559290718826        1.85720350769050
H            3.55489001609840        7.37712432732284       -3.23352933392340
H            4.73052737937858        6.59755978566494       -5.26368350411356
H            6.39880603533098        4.79891400838317       -5.09029831684970
H            6.89365359738179        3.78671100404794       -2.90454242026766
H            5.70811214694992        4.58201361678750       -0.88840949424297
H            2.08997984038135        4.97114809738753       -2.24900072714571
H            1.07918589475702        2.93146170205740       -3.15531251117973
H           -0.46499375833399        3.27129217458820       -2.37161322456283
H            0.35830144889810        1.73676973601323       -2.08414492247697
