87
 energy: -18.885822274336 gnorm: 0.000745096679 xtb: 6.5.0 (97a52f5)
C            2.20076312251650       -0.21227749730219       -0.52984783661475
C            0.85922443815931       -0.03812781124530        0.08888267901741
C            0.00318575404125       -1.11879854692799        0.15520517081101
C           -1.25989347188232       -1.02508450484118        0.72956503244323
N           -2.13017517337836       -2.17355641333263        0.74682281459636
C           -3.21651489474122       -2.40333674359975       -0.12219225146646
C           -3.72431702779158       -1.63117746084208       -1.16548903969509
C           -4.80946236280865       -2.10095232462552       -1.86418063506975
C           -5.39786816476805       -3.32762781522418       -1.54237611691853
C           -4.90924442958066       -4.09961323665165       -0.51515464740653
C           -3.80839095051707       -3.63472139979377        0.20526949450350
C           -3.07005079731403       -4.18294162884780        1.31984054433780
C           -3.22090551744219       -5.36203999115604        2.05144462044665
C           -2.34522149449440       -5.59686055060881        3.08679272492315
C           -1.31958587247331       -4.67232136478737        3.40243687502646
C           -1.16359134491364       -3.51062680643577        2.68352242603839
C           -2.04667748807679       -3.26730745819909        1.63248699152407
C           -0.46929193357623       -5.12185190092385        4.58960975936803
C            0.06591210256391       -6.50471959462748        4.22044917837640
C            1.39092800041316       -6.89429272110690        4.16869264320257
C            1.70307503533892       -8.19044873414400        3.80825444909066
C            0.70149100302289       -9.09346483494544        3.50103926377344
C           -0.62497313539977       -8.71192857134288        3.54980786853209
C           -0.94552246860983       -7.41649980835240        3.90956698393579
C           -2.34545979977362       -6.81248978118701        4.01219762257470
C           -2.45909276259235       -6.25640625278176        5.43116027086009
C           -3.42688752588673       -6.56542204691916        6.36826968775943
C           -3.38234066632147       -5.96646534745202        7.61191869954431
C           -2.38026252970563       -5.06451567443643        7.92059888635683
C           -1.41002853388835       -4.74985487141490        6.98940971744751
C           -1.44740760118074       -5.34502650712488        5.74258926965761
C           -1.67699663602454        0.19395565474607        1.27629269779136
C           -3.02082849683651        0.32235864712954        1.89726838984801
C           -0.82954933126608        1.27847943588813        1.19873571219607
C            0.42868439985307        1.19911985832482        0.60207981904125
C            1.25783904444420        2.42241065036460        0.53858597027265
N            1.07904383072832        3.31442914075065        1.50198826788407
C            1.83717019699607        4.39467382696162        1.40554346812240
C            1.69617238959575        5.41588955449930        2.45839999375752
C            2.49770243029946        6.55389506008858        2.45784655995622
C            2.36905173658900        7.50542515959525        3.44534242978459
C            1.43654084988548        7.33760511981517        4.45017042167686
C            0.63194863525168        6.21519503215513        4.46386522281789
C            0.76059329343747        5.26241744187118        3.47754926047454
N            2.71188586004340        4.63260019362748        0.44112973859463
C            2.79119147519094        3.68330787614280       -0.47791763204564
C            3.73463657606897        3.89663284784599       -1.58980841884109
C            3.87396200973977        2.94744059793566       -2.59828572337795
C            4.75443340890015        3.14886690784180       -3.63811328018382
C            5.51140876039331        4.30280095499928       -3.68928038478666
C            5.38415134866540        5.25540631196781       -2.69749943722030
C            4.50395922960970        5.05472083508277       -1.65720909503412
N            2.09052903906671        2.56071325516794       -0.48125950347998
H            2.57259568778928       -1.22772524480050       -0.38812629766254
H            2.92780780043819        0.46902863829110       -0.08778148807815
H            2.15930606898507       -0.01431893083521       -1.60107085749833
H            0.31167087568053       -2.06548316721442       -0.25005229563508
H           -3.26402931185954       -0.68887469556587       -1.40388337626618
H           -5.21386629307018       -1.51586022666851       -2.67370238362462
H           -6.24690896447593       -3.67263359916099       -2.10924285411120
H           -5.35684734580286       -5.04413027806825       -0.26108953030180
H           -4.00106567673151       -6.06140461393242        1.81537692005860
H           -0.38901575179363       -2.80632184824106        2.92232284097377
H            0.32740734493787       -4.40917676284361        4.83801701132512
H            2.16424385570410       -6.18490904450992        4.40722125685359
H            2.73471043344101       -8.49937212178303        3.76515991626058
H            0.95737919069254      -10.10218338793352        3.22071537769517
H           -1.41015502703934       -9.40791524699507        3.31064456762409
H           -3.13921674507510       -7.53113279863754        3.77154718797364
H           -4.20346433335879       -7.26793986490494        6.12018209683840
H           -4.13415669389779       -6.20396035953072        8.34674863711844
H           -2.35589037859458       -4.60355507191891        8.89449550747725
H           -0.62695910012894       -4.04909987929072        7.22154959432666
H           -3.40687199005703       -0.65239254741223        2.19734691071048
H           -3.73111839243199        0.76275707140553        1.19673082870033
H           -2.98405321557020        0.95347433022933        2.78602828424964
H           -1.14768385024882        2.22289465295484        1.60158665639446
H            3.22163856564248        6.67765429572244        1.67174698207127
H            2.99725773670029        8.38112948130674        3.43409312327510
H            1.33632684371771        8.08224374917932        5.22288486971977
H           -0.09681496284481        6.08446718280886        5.24709684439944
H            0.13805136210931        4.38500909021805        3.48206195153140
H            3.27888588742255        2.05268888170534       -2.55384190373647
H            4.85219248139115        2.40573990091970       -4.41260770049914
H            6.20035967456257        4.46016574272563       -4.50302734624539
H            5.97344427873366        6.15692030307700       -2.73766842054298
H            4.39879638547802        5.79284020809256       -0.88169053562617
