56
 energy: -12.565236341454 gnorm: 0.000729084054 xtb: 6.5.0 (97a52f5)
C            0.85169400157986       -2.14828406609825        0.02009336055651
C           -0.06895158614108       -0.97834455755201        0.01365085136195
C           -1.44009912210956       -1.16478620929052        0.00257964887388
C           -2.32392745136627       -0.09566556480318       -0.00692502592981
N           -3.74080517321494       -0.33327631972815       -0.03158797953706
C           -4.66111767215135        0.18818389448854       -0.96361189991929
C           -4.46212891163275        0.94644085580002       -2.11617540243038
C           -5.55546672809355        1.34583635429626       -2.84342769460877
C           -6.84968055647167        0.99661881207287       -2.44746159140427
C           -7.06412194751259        0.23998967752464       -1.32085050651130
C           -5.96121260780879       -0.17272419025446       -0.57103314089526
C           -5.84179509082394       -0.95630117665941        0.63466148904248
C           -6.79024210468164       -1.55495646819581        1.46570203565875
C           -6.35655299617962       -2.22721776310263        2.58266678925932
C           -4.99490326990605       -2.31276609956847        2.88789186597299
C           -4.05026659677137       -1.73019899612070        2.07959478737979
C           -4.47273435978407       -1.04851782846820        0.93881948512055
C           -1.81408745144561        1.21303486854639        0.00580342516376
N           -2.69489578199775        2.34866963912169        0.02419008408366
C           -2.74265620959540        3.37049123024645       -0.94569324805427
C           -1.96678452365285        3.58352289186573       -2.08472588715542
C           -2.26227050109945        4.65277972304210       -2.89355343016082
C           -3.32069452559341        5.51491009152022       -2.59117307857069
C           -4.09810302572944        5.31637010287269       -1.47601746448834
C           -3.81006502677865        4.23337258719339       -0.64364061965873
C           -4.43249174786840        3.74009150847059        0.56079369745634
C           -5.52405494942988        4.18627742076632        1.30824735159633
C           -5.88351179573077        3.48505743315681        2.43367550019882
C           -5.17208603414718        2.34930536579859        2.83094822153146
C           -4.09715711892441        1.89946347822674        2.10600085767441
C           -3.72565381322828        2.59111195123506        0.95411363729540
C           -0.44312322507256        1.40005952923640        0.00977023204053
C            0.43917041990431        0.32882096744644        0.01397721626347
C            1.82056652547718        0.58319808086570        0.02318090670213
N            2.96066050705129        0.80243396260117        0.02993136539626
H            0.30193409064828       -3.08980361063481        0.03493005891131
H            1.49814136043985       -2.12573810046612        0.89783698069489
H            1.48563733756546       -2.14575718167902       -0.86699717530091
H           -1.84031977076442       -2.16219619667598       -0.01027746798438
H           -3.46344167772000        1.21577486817774       -2.40834527013799
H           -5.41445987924174        1.93947202662902       -3.73152314760767
H           -7.69057456119421        1.32440082306820       -3.03614632130987
H           -8.05671828121144       -0.03477065994742       -1.01083444996634
H           -7.83644932988247       -1.47897197797511        1.22792567794432
H           -7.07615228105072       -2.69330856059117        3.23539114982502
H           -4.68301975952566       -2.84286568287016        3.77268904968952
H           -3.00186938568490       -1.78457005760536        2.31196082439226
H           -1.15988225437380        2.91122915876560       -2.31498275299332
H           -1.67101870523406        4.83003863888937       -3.77689818721276
H           -3.53081744965274        6.34551933409242       -3.24461864166495
H           -4.91800403188117        5.97145394886760       -1.24006847384419
H           -6.06522790324814        5.06220359393207        0.99699234503907
H           -6.72451857675370        3.81558859409917        3.02062928276013
H           -5.47425614664367        1.81751972067997        3.71810609107497
H           -3.54866830200536        1.02268008141081        2.39866516026658
H           -0.05457404165090        2.40195005328101        0.02129942811890
