61
 energy: -12.791195896163 gnorm: 0.000584931547 xtb: 6.5.0 (97a52f5)
C            2.53109110460051        0.08826068306844        0.55302321802098
C            1.07761649502505        0.07247990238433        0.22910118591842
C            0.37961944024122       -1.11974567536368        0.24792635545704
C           -0.97791353232246       -1.17656221723963       -0.04735875526970
N           -1.67922983206088       -2.42987923325277       -0.02682293392018
C           -2.52589459403492       -2.92533887602558       -1.04103779528713
C           -2.87808697185986       -2.39068615596655       -2.27983400393231
C           -3.72611747116124       -3.10390628048630       -3.09071343275532
C           -4.22991603716391       -4.34492303622102       -2.69215562462669
C           -3.88711225968920       -4.89017075154204       -1.47854179000712
C           -3.02451750253528       -4.17771928831361       -0.64434100926175
C           -2.47095540085331       -4.46733457600639        0.65712827693252
C           -2.62768646882867       -5.54841817835821        1.52555761467296
C           -1.96488594080053       -5.52852777319326        2.72882371980479
C           -1.15117658300021       -4.44920437924001        3.08358840602866
C           -0.98756261509261       -3.37857752990032        2.23957665721597
C           -1.64817022722575       -3.38475694879917        1.01153736129846
C           -1.64378357256263        0.00168782086394       -0.36060823499842
C           -0.97106469776269        1.19779712901000       -0.37137165673136
C            0.39118692211416        1.26103123819161       -0.07696968242741
C            1.08812503638242        2.57345272883442       -0.09695542581833
C            1.50724543288575        3.15503933771583        1.09949658164094
C            2.14073869281779        4.37766363250501        1.10528591611468
C            2.35901835420471        5.04094615873505       -0.07805927757514
S            3.17398759642380        6.64097099007075       -0.06117326080409
O            2.14736041286114        7.69938029288951       -0.41347817942970
O            3.99214499182022        6.78072451930498        1.20739502062377
C            4.29307071615307        6.39345012849702       -1.44244698401681
C            4.07058998655172        7.05372360652239       -2.62830273803293
C            4.92116599106299        6.85535387173912       -3.69787804820204
C            5.99322392470291        5.99469296721063       -3.57198368249540
C            6.21502077999066        5.33548408200946       -2.37936798906225
C            5.36137662743414        5.53669455420836       -1.31255640934007
C            1.95395598300243        4.48494311140916       -1.26979794967490
C            1.32994407078656        3.24861001675046       -1.30603957822560
C            0.91041067090917        2.66620270588117       -2.60999412802004
H            3.00114420430707       -0.86278155279912        0.30107762028568
H            2.68843275966396        0.26998686662837        1.61647417665129
H            3.04926852114977        0.86917506441925       -0.00397216260545
H            0.89686417588960       -2.03260077421204        0.47963214668781
H           -2.47789913280188       -1.44109881438136       -2.58609744278286
H           -4.00608273544048       -2.70254030474052       -4.05071326909503
H           -4.89393150636320       -4.88260968574087       -3.34863182777764
H           -4.26665295775839       -5.84702870491993       -1.16684906263402
H           -3.25976711936126       -6.37299179079165        1.24738470870364
H           -2.07543914017227       -6.35523806740880        3.41096771084257
H           -0.64625352420602       -4.45738725665282        4.03545808681243
H           -0.37309014342947       -2.53979080451519        2.51266784559067
H           -2.69739504324919       -0.03549715617782       -0.57401844481796
H           -1.49392772792002        2.11003646935811       -0.60232763205823
H            1.32181072136983        2.63566999503938        2.02369520917857
H            2.46714479041704        4.82576620401514        2.02902294839478
H            3.22838585134811        7.72047048671254       -2.70983588213126
H            4.74745424025882        7.37097979123887       -4.62803135513713
H            6.65813614299145        5.83804097185332       -4.40540839331157
H            7.05245334883500        4.66454372137303       -2.28045672763184
H            5.52115388114298        5.02881127155888       -0.37598347611620
H            2.12990722479495        5.01727411854270       -2.18800299630113
H            1.56074490496901        3.00268143921533       -3.41807691731931
H           -0.11086656282985        2.95969146735264       -2.85463670526200
H            0.95284530338170        1.57685846714096       -2.58581990195875
