54
 energy: -10.673857251517 gnorm: 0.000620060861 xtb: 6.5.0 (97a52f5)
C            1.88473908872402        1.50145464345894        0.68818234672983
C            0.60646583992332        0.75759181417416        0.50913827533043
C           -0.59552918039496        1.44100254101759        0.52922370120880
C           -1.81665537349942        0.79658339246784        0.37280680025990
N           -3.00495580147967        1.52065452407638        0.39598678403029
C           -3.22024010703813        2.55913097815663       -0.31874853303964
C           -4.47221527076567        3.25936556492000       -0.37376972940785
C           -4.58686232870405        4.40718855601649       -1.15987703223030
C           -5.76892948822850        5.09430003979861       -1.24022978808268
S           -5.86880770421509        6.56800102101041       -2.26634282867688
O           -4.73455467142465        7.45020463139169       -1.84466134503008
O           -5.84435104533206        6.08443793447478       -3.68329145000943
O           -7.26979808453169        7.20435928076882       -1.88737187546161
Na          -8.47301055102404        8.90280912644793       -2.14240851612223
C           -6.87686791444787        4.66095853641536       -0.54387630572533
C           -6.80313624833737        3.53602575821184        0.24019941720690
C           -5.61134245652179        2.81048331898095        0.34661403704169
O           -5.55674373562984        1.68361148020225        1.13158334176754
C           -1.83111922071277       -0.60100210163566        0.19003642473019
N           -2.99732832113522       -1.33315844059564       -0.01914617493448
C           -4.18844332447384       -0.88400831524146        0.08577180527140
C           -5.38794618390735       -1.62371412404350       -0.17154947647629
C           -6.60366930265521       -0.94217328725494       -0.18149248582043
C           -7.78047502613813       -1.58981315723407       -0.43507146795492
S           -9.30298551946320       -0.63138585994133       -0.44314981741717
O           -9.36752879296673        0.04994872345871        0.89050612316286
O           -9.20904085633519        0.27072902188647       -1.63644390510209
O          -10.44368908925107       -1.71577294959093       -0.62682686722786
Na         -12.45304363483672       -1.79378778209754       -1.22300106340351
C           -7.78671222587321       -2.94666978389630       -0.67998655465983
C           -6.60853407079779       -3.65445957263339       -0.67699614028084
C           -5.38548869920239       -3.01960010111179       -0.42833763622117
O           -4.20981900481257       -3.73046021536272       -0.42547038060423
C           -0.61816493097156       -1.27756711881042        0.17805120516896
C            0.59398504171138       -0.63255792389267        0.34312549757777
C            1.85973387835450       -1.41770162996915        0.31240852880564
H            1.73657951433463        2.57559998154293        0.57547819391352
H            2.62401225315560        1.19471167664832       -0.05176236360928
H            2.29980540915476        1.32534285456928        1.68069527488388
H           -0.59399869914602        2.50483366318626        0.68015366776618
H           -2.42088192292579        2.90269913610168       -0.95267571568899
H           -3.73325296960880        4.76277491892702       -1.71100438410757
H           -7.79757335813762        5.21429494946297       -0.62488812801188
H           -7.67391272248173        3.19232556001891        0.76911922737036
H           -6.37582849278649        1.60059145495870        1.66077708061048
H           -4.31820332389587        0.14345219040218        0.37266566776649
H           -6.61606814839880        0.11575841948259        0.01055478322576
H           -8.72432819163109       -3.44140449798844       -0.87022071881905
H           -6.61989922357653       -4.71241935635239       -0.86710400652026
H           -4.37427020601599       -4.67337282850890       -0.61833078745674
H           -0.63660799970072       -2.34188950747198        0.02953409574279
H            1.66535949760128       -2.48461190810589        0.42423739976537
H            2.52605543931775       -1.12130291267246        1.12252579384937
H            2.38351746112524       -1.27194231825325       -0.63251999510790
