53
 energy: -8.871393806760 gnorm: 0.000924158222 xtb: 6.5.0 (97a52f5)
C            0.45078015583848        0.30781515340583        0.58593555522496
C            1.75095533187353       -0.17352008594188        0.02775187101697
O            2.08590028309113       -1.32836719450894        0.17399063387600
C            2.61625623597621        0.77813436942498       -0.70145941408914
C            3.80969124195485        0.32427447797983       -1.24868261033522
C            4.64547027756649        1.17764289643722       -1.93229866698551
C            4.31399112193666        2.51927027492173       -2.09329613635770
C            5.17035060034898        3.39343085063855       -2.79250929502851
C            5.92064182066210        4.14106832971526       -3.40179114377341
C            6.79193573529950        4.99925215448879       -4.10274478176172
C            8.14410763532246        5.06982549287221       -3.77841364871605
C            8.98514262924990        5.91067218577253       -4.47264369174200
C            8.49217300132968        6.70258303639573       -5.51069513537219
C            9.34132887922417        7.58817862107004       -6.25263037188637
N           10.60961631251002        7.86481317131359       -6.09292399220088
C           11.30227480451759        8.68194981186515       -6.81208985479498
C           12.54320215932774        8.93689281796587       -6.62369979269644
C            9.11139823495987        8.72964395975879      -14.67448051133028
C            4.98661489538262       14.13018805563937       -6.58920184495211
C            4.64960211683542        9.33631973781134      -10.08447906154431
C            5.04836346960156        9.27335833593838      -11.38925310435995
C            4.67575855716395       10.26158397166350      -12.25913558781136
C            3.88901726680398       11.32394236119961      -11.79681001372044
C            3.50719758094785       11.35513337757050      -10.48595185795318
C            3.90018208467369       10.34710555435470       -9.64339291551834
C            2.10369213336982       10.28452184757101       -5.09389442848250
C            7.16543268241490        6.61419560337882       -5.80799193730179
C            6.32731469432633        5.80066280959507       -5.14289584729261
C            3.11872681145738        2.97520422386023       -1.54561708035344
C            2.28371775782182        2.12125521800377       -0.86132063244168
H           -0.06880829982668       -0.51211201869492        1.08005462562980
H           -0.19812910594888        0.68814793167873       -0.20250804437142
H            0.60706992159956        1.09645810516057        1.32149600353154
H            4.07077642101411       -0.71273629118816       -1.12519959602940
H            5.56807027560807        0.81429943627570       -2.35168285513819
H            8.52340480848772        4.45734331430724       -2.97847561202355
H           10.02987534372154        5.96277044770753       -4.21954207586590
H           10.61893266595366       12.27436493477109      -12.13232986058343
H           12.90959542377555        9.55701349114939       -8.41891428289440
H           12.59664707446196       10.79076863769820       -6.42341000537595
H           12.93453774609343        9.11256406489509       -4.82083039195736
H           14.48413328283509        9.15944188287415       -6.64524593327350
H           13.46299562717803        7.35185014301998       -6.93145899737052
H            6.93090345692728       11.60301162043195      -10.03128247423575
H            5.65332252553126        8.44505915571557      -11.71830738162886
H            4.98343597657478       10.22571711180695      -13.29127202654901
H            3.58918672694747       12.10837709272769      -12.47216856207503
H            2.90114228556017       12.15905031023625      -10.10323711795309
H            2.08560332885178       11.14975976543704       -4.54978915304186
H            1.31741001880938        8.46835501477067       -9.88211102884913
H            5.28715416043273        5.76658760204788       -5.41668662061104
H            2.85453668126788        4.01219626455147       -1.66444517611660
H            1.36537711233891        2.49551057926410       -0.44429814660888
