22
 energy: -4.432663179394 gnorm: 0.000856410432 xtb: 6.5.0 (97a52f5)
C            1.03771765686018        0.09185448275660        0.03038418260862
C            2.51752381185497        0.00503863706384       -0.04769773112196
C            3.13743839545436       -1.20219078809411       -0.06388937197552
C            4.56019213298550       -1.31156182551291       -0.13855425430366
O            5.13012351602892       -2.40159728121895       -0.15711338290927
C            5.29745770781122       -0.06401648669843       -0.19102400670619
C            6.69047100801130       -0.04946056422939       -0.25951712276056
C            7.37771024186200        1.13076613201739       -0.30319994206898
C            6.69454511853792        2.35933952397273       -0.28027482942973
N            7.38746731039030        3.55539853725211       -0.32322738135605
C            5.30686495818661        2.34438401904579       -0.21474145771853
C            4.58838619355942        1.15247445890034       -0.16878056575534
O            3.20106111149052        1.19568370076545       -0.10097145273670
H            0.57582607951306       -0.89465023669073        0.06518292264599
H            0.64432523508720        0.62223806422309       -0.83625149829522
H            0.73794517437296        0.64048030732628        0.92281954360674
H            2.56332564776069       -2.10792238441559       -0.02057751380652
H            7.21230587654288       -0.99095590705633       -0.27786408932722
H            8.45170247461781        1.13408338216773       -0.35699633063661
H            8.38476989134016        3.59732339401867       -0.21109784402975
H            6.94481047887781        4.43787939158727       -0.13662675032362
H            4.76485997885423        3.27044144281916       -0.20072112359989
