55
 energy: -10.757291483313 gnorm: 0.000824947184 xtb: 6.5.0 (97a52f5)
C            1.20372339833841       -0.52548561058793       -1.41758212933352
C            2.57329519085410       -0.39257983033887       -0.86545753939926
C            3.07434056272078        0.83606912090840       -0.58560504589767
C            4.38942570041353        0.98337920968317       -0.05297647040262
O            4.87178004750642        2.09626231101470        0.20515772522685
C            5.11495463021028       -0.21891896854768        0.16222877981173
C            4.56719309856766       -1.43755524530942       -0.13068081679492
C            5.29826533909687       -2.69174575022642        0.08335732645888
C            4.71203510262243       -3.88624756429846       -0.32988223004523
C            5.34863907860409       -5.08863541879484       -0.15580041851928
C            6.60665625967989       -5.15484615369935        0.44284364800183
C            7.32808833269495       -6.40858615366211        0.63185589521760
N            8.60444787417553       -6.44687841072061        1.08500615751110
C            8.95559797952489       -7.72662553973765        1.11925173997560
C           10.18467761798251       -8.29200054839974        1.52863099512234
C           10.32106168140514       -9.64216793302778        1.51462796350668
C            9.25185808663341      -10.47688512981250        1.10591303614784
C            8.07578883379727       -9.94422075489995        0.70825418172585
N            7.91046294551165       -8.56161408569568        0.68904089201987
C            6.86450664143773       -7.72233362776661        0.36986491481958
N            5.59688143937407       -8.15624793293282       -0.08695174154667
C            5.32859898465062       -8.36058659635978       -1.52589813431374
C            6.16070001435867       -9.52535644871376       -2.09644979415829
C            5.90418387472514       -9.71500640094784       -3.60280800896460
C            4.40495432150582       -9.93144706294524       -3.88486009028319
C            3.56142296003537       -8.77638587571783       -3.31164391970436
C            3.82821865735001       -8.58795868833409       -1.80670089435227
C            7.19384910516653       -3.95846999205435        0.85681635776529
C            6.55736679529958       -2.75375960302251        0.68535984734149
O            3.28945007248144       -1.54580260675169       -0.64953944846511
H            1.06288078473085        0.12746255309720       -2.27937363623559
H            0.45547945854073       -0.27069604823656       -0.66664432011127
H            1.02419948758945       -1.55158622262176       -1.73802650852196
H            2.48745218897827        1.71705300428105       -0.76311407511880
H            6.10890110218566       -0.13662094266035        0.55435794226174
H            3.74148325093706       -3.84661778635329       -0.79364117758655
H            4.87855704892796       -5.99071139276134       -0.49213961439539
H           10.98366477007288       -7.64613352386216        1.84506189938891
H           11.25056575000763      -10.09022845025040        1.82494117503761
H            9.38013243668880      -11.54636426047816        1.12144139441790
H            7.24540321547165      -10.56172457362771        0.41929243220322
H            4.76773040192815       -7.80191453296854        0.38506235982265
H            5.64217029290291       -7.44232844371769       -2.04664119170889
H            5.89271075936485      -10.44004649889039       -1.55797375572272
H            7.22549741667641       -9.35983154210874       -1.89185833191430
H            6.49913107159258      -10.55097416463655       -3.99558924801170
H            6.25151394851213       -8.82737098075510       -4.14512457637618
H            4.08272455795234      -10.87609863108884       -3.43036168879354
H            4.22478045937201      -10.04732859953640       -4.96246780080623
H            2.49202076718764       -8.94597004013643       -3.49754996311539
H            3.80762060067465       -7.84883690899236       -3.84245962611899
H            3.50288063257362       -9.47803316662625       -1.25790874865434
H            3.23516319183086       -7.75874531119359       -1.40149055286075
H            8.16566600710313       -3.99735953101278        1.31678732492932
H            7.03611577142330       -1.85332671318697        1.02501750955192
