26
 energy: -5.205210699829 gnorm: 0.000475236600 xtb: 6.5.0 (97a52f5)
C            1.04391795356820       -0.19143437522078       -0.03204093328129
C            2.53150583651889       -0.12051650144786       -0.02972064477658
C            3.27177612022266       -1.24738379381743       -0.02842262314675
C            4.71529320299343       -1.22866354716884       -0.02597373477677
O            5.31739270193379       -2.29600913759427       -0.02536640640931
O            5.36831643571972       -0.01803078612475       -0.02441703370199
C            4.61404778356534        1.13157177689321       -0.02590584779401
C            3.21057158774281        1.14002253277800       -0.02878690485155
C            2.51110845531484        2.38382799538201       -0.03088610136826
C            3.15716473327076        3.57651821204933       -0.03030571561424
Br           2.22475185222765        5.20288209458244       -0.03367010894065
C            4.56873963481980        3.60525604451188       -0.02719427565732
O            5.45956418152576        4.65153245871298       -0.02644118372468
C            6.70967874417035        4.09387197589276       -0.02343566550066
C            6.65353617116278        2.71879636682679       -0.02189320031296
C            7.78208242598973        1.76159671641260       -0.01740517677969
C            5.28161499198805        2.39069226855329       -0.02450998896675
H            0.69501177027295       -1.22438797949681       -0.03198601527006
H            0.63293131998795        0.29404416297531       -0.91763264096731
H            0.63016197469160        0.29506546661066        0.85170729616848
H            2.79162508673350       -2.20784334569740       -0.02921299102393
H            1.43513754237127        2.38619019379337       -0.03326040665303
H            7.62202802345988        4.67734470461658       -0.02188195764319
H            8.74169576055630        2.27883819767415       -0.01610544951889
H            7.74036622898910        1.11812753155500       -0.89672523960998
H            7.73621948020288        1.12154076674780        0.86419295012142
