26
 energy: -5.203062332752 gnorm: 0.000453976475 xtb: 6.5.0 (97a52f5)
C            1.01157740369224       -0.04333401245008        0.08018579051887
C            2.49945071582405        0.02887347804176        0.08275299506699
C            3.24034553025693       -1.09779670043751        0.08447217791021
C            4.68381865126760       -1.07814936355466        0.08719777536124
O            5.28643534305110       -2.14494064387458        0.08848584459716
O            5.33589111098671        0.13245587855368        0.08828851041596
C            4.58050429988486        1.28082874200936        0.08645530608858
C            3.17843620568128        1.28991580081796        0.08349977773866
C            2.48166927602180        2.53213432566057        0.08119992150266
C            3.11552656574482        3.73738067298454        0.08169403722179
Cl           2.21814041835870        5.23589632599658        0.07851570390049
C            4.53563018416669        3.75484109217120        0.08490151789108
O            5.43215775508096        4.79610514796833        0.08597239820185
C            6.67930205487878        4.23597861939583        0.08923457790418
C            6.61801371063427        2.86163785687467        0.09050173250266
C            7.74195847018447        1.89852531399597        0.09499515296221
C            5.24496673191619        2.54008689463255        0.08755495797271
H            0.66353406522843       -1.07667351372717        0.08019358743319
H            0.60027043159088        0.44141714120695       -0.80578819307736
H            0.59719911537744        0.44246740895965        0.96415814994294
H            2.76117780106165       -2.05887504519017        0.08390152932360
H            1.40666196469211        2.53046145803693        0.07879726849811
H            7.59301520279066        4.81785031946389        0.09106327328351
H            8.70438140180658        2.41073005325948        0.09637445373704
H            7.69643838409867        1.25520185502777       -0.78443761395941
H            7.69220720572216        1.25853089417650        0.97661936706116
