36
 energy: -6.700023250677 gnorm: 0.000559330664 xtb: 6.5.0 (97a52f5)
C            4.29930840419888       -1.18193018209454       -2.99698116157635
C            4.42628381992420       -1.34822327867523       -1.52188302075067
C            3.34500580686824       -1.63805972708493       -0.77139734456481
C            3.41737295158086       -1.80930924693969        0.66209994809575
O            2.39018937205521       -2.07433458262895        1.27723599114536
O            4.63804119978933       -1.66930001544346        1.29022591580381
C            5.76010028065251       -1.36876681227984        0.52825476131868
C            6.99110925061069       -1.22534639757091        1.18761645132976
C            8.15229356192738       -0.91935670485459        0.47106029606964
C            8.08018902255106       -0.76761107403107       -0.93484057135771
C            6.87241796564792       -0.90874278324583       -1.56930009369532
C            5.69550428480142       -1.20528134278236       -0.86983511622005
C            9.30828259143532       -0.45326108786612       -1.74162484693233
C           10.61056277964553       -0.83524075061109       -1.02362725186807
C           10.59904864554401       -0.34573954458401        0.42254565672407
N            9.37655818802381       -0.76552467893922        1.13647433769137
C            9.49300397524823       -0.88700845805086        2.60467763596629
C            8.41576858235033       -1.79485731741701        3.19385900437827
C            7.02674382874049       -1.40188052275359        2.67360171218171
H            4.62624699361736       -0.18890907677627       -3.30663149579172
H            3.26633332796167       -1.30430646200288       -3.32345283829778
H            4.90151653025911       -1.92158747289848       -3.52549409431279
H            2.38356300241535       -1.75069123413585       -1.23520522764472
H            6.83229600363244       -0.78571689970500       -2.63608940653625
H            9.31161417801058        0.61848051763105       -1.97200389000107
H            9.24294780301405       -0.96495620567352       -2.71004762308680
H           11.48207217958666       -0.43502992448536       -1.56000476724476
H           10.72835676450071       -1.92548934173832       -1.03583596253557
H           10.64494050452807        0.74697394934108        0.45677395007292
H           11.47486604938136       -0.71144185413344        0.96853246212618
H            9.41947142734850        0.11902046214809        3.02856541409525
H           10.49387101641916       -1.25664253937206        2.85084750180148
H            8.44195555864576       -1.76336569122385        4.29175635661181
H            8.62779028478148       -2.83534307512042        2.92016052739388
H            6.70025046280105       -0.46792036469642        3.14549274808817
H            6.27921340150114       -2.15357027930473        2.95763404152097
