39
 energy: -8.166012471028 gnorm: 0.000842117126 xtb: 6.5.0 (97a52f5)
C           -0.34398348240278       -3.12858214974775       -0.31894404935428
C           -0.57822267060742       -1.65967089329046       -0.24598726946296
C           -1.82412480785019       -1.16035896678360       -0.34452168521429
C           -2.10223299550124        0.25909604623957       -0.28178156307129
O           -3.26330335746017        0.63447454325187       -0.38421095516174
O           -1.05587300291727        1.13909312244948       -0.11067466043997
C            0.23261882167143        0.63578008413555       -0.01149594218734
C            1.28519912303470        1.53759844919145        0.15486785446677
C            2.59582832509324        1.11346428223120        0.26377135922106
C            3.69769698883419        2.06049935655438        0.44199746627666
C            3.62859933374933        3.43363111666957        0.41187609558372
N            4.91312668482652        3.82786516710223        0.64041168593911
C            5.34999677744978        5.20495010424274        0.91987579535769
C            5.19506126294229        5.55067961546042        2.36425928365575
C            5.14850119444306        6.87017594281131        2.78492416513453
C            5.01806317168653        7.17372973126244        4.12435176684697
C            4.93683726912338        6.16234845621880        5.05881476329821
C            4.98938489006094        4.84565359768698        4.65309643832446
C            5.12044605154225        4.54695303769025        3.31470020974816
N            5.69329795373760        2.75708335840875        0.82913472245656
N            4.98872898596646        1.70530338987043        0.70183031482426
C            2.85994572329799       -0.25938095171535        0.20373014287064
C            1.84781198875701       -1.16432167042100        0.03894667686857
C            0.51536106480829       -0.74380161258364       -0.07145509367136
H           -1.27968495679006       -3.67528957579154       -0.43835808054268
H            0.13499836007005       -3.49214079154198        0.59049834588634
H            0.29436679394958       -3.37835443281721       -1.16680854616152
H           -2.66005766558589       -1.82081035164175       -0.47770957476484
H            1.05139187773855        2.58411495387934        0.20289725633900
H            2.77194951646034        4.06975867250924        0.27473744969646
H            4.76876358628133        5.88852090953074        0.29714498252136
H            6.39570977545334        5.30209447651243        0.62104617931388
H            5.21574541606250        7.65795940638671        2.05447317618907
H            4.97999170107060        8.20313569423156        4.44076090872806
H            4.83454959264390        6.40069085503088        6.10468737104068
H            4.92741198558570        4.05284259519123        5.38025663393693
H            5.16298543586518        3.52387996925753        2.98741452316510
H            3.87943465376609       -0.59141154382378        0.28979913342265
H            2.07531863314591       -2.21457399384973       -0.00678728108000
