21
 energy: -4.211838758525 gnorm: 0.000569304521 xtb: 6.5.0 (97a52f5)
C           -1.46257440737221        2.87432388607990       -0.00218011492651
C           -1.27441588721615        1.39700412156675       -0.00905043612425
C           -2.33852896880827        0.57115222577193       -0.01933322824141
C           -2.20627712741964       -0.86844049162573       -0.02612486961961
O           -3.22315379019832       -1.54949198107013       -0.02993710757509
O           -0.94865829781087       -1.42606461955519       -0.02747274505990
C            0.15418611895489       -0.58770879161537       -0.01337758127249
C            1.42086853771712       -1.16595891880074       -0.00915720535378
C            2.57461726036531       -0.39598819206013        0.00506483383898
O            3.83464629510282       -0.95289991245429        0.00804597907150
C            2.44103315233735        1.00317620609088        0.01649091021205
C            1.20969330127074        1.59130778292595        0.01242994389428
C            0.03832846820767        0.81927342003222       -0.00319950647756
H           -2.51967833791727        3.14067147916599       -0.01963531859987
H           -0.99517945768297        3.32996834309213       -0.87560214939986
H           -1.02672882027320        3.31752630651710        0.89365098716411
H           -3.33399686624035        0.97400162020951       -0.02188479410595
H            1.48938430382767       -2.23668819609952       -0.01765055856315
H            3.78386772001728       -1.92576061225759       -0.00205538885152
H            3.33711496181057        1.59800548672274        0.02832578823815
H            1.13470184132787        2.66453083736361        0.02186256175188
