38
 energy: -8.242852684386 gnorm: 0.000873079368 xtb: 6.5.0 (97a52f5)
C            1.02852345215722        0.06925346111295        0.05012109372245
C            2.51705805644617        0.04692818268847        0.00052908993846
C            3.21787986224576        1.19340367192865       -0.03019423085461
C            4.66699748261945        1.22259521480905       -0.09024538775463
O            5.23092518246627        2.30883544999091       -0.10844303773442
O            5.35993874680731        0.03086954481655       -0.12675026852564
C            4.64638640288918       -1.15726272556463       -0.09478937919532
C            5.34939256124641       -2.35678233072785       -0.13603083605389
C            4.72428848108727       -3.59631113412098       -0.10340503015073
C            5.49042888051943       -4.83896938791446       -0.16939665119951
C            6.88636041724955       -4.83120991555882       -0.28760053538921
C            7.60685223295056       -5.99506368623005       -0.35953051047309
C            6.95485768175184       -7.21213290736709       -0.31571282133776
C            5.58944783482707       -7.25260183635313       -0.20002128978853
C            4.82367009887278       -6.08171013684208       -0.12430095351725
C            3.36634193882231       -6.12709378938996       -0.00198583071397
C            2.67549418930436       -7.34424722168320        0.06610351760506
C            1.31040395204967       -7.39019215251166        0.18367629158755
C            0.58357184336882       -6.21664257620603        0.23860242305501
C            1.22941119994020       -5.00934322826336        0.17467807482896
C            2.62338596114530       -4.92785023636849        0.05226218498457
C            3.30969120901273       -3.63958263201899       -0.01049817189234
C            2.60840486557307       -2.43698977610527        0.02107009371237
C            3.23947105580821       -1.19967503819672       -0.02304717329784
H            0.64549337530433        1.09005454737196        0.04549179749359
H            0.66099851308634       -0.41628819086445        0.95456411528683
H            0.60313934648588       -0.44469124860333       -0.81245287308540
H            2.70569138624598        2.13678524558414       -0.01320027655724
H            6.41693600045697       -2.28263479972131       -0.19473585335894
H            7.41758753609675       -3.89858304506372       -0.32781584496961
H            8.68025676532365       -5.96237827064073       -0.45193458443769
H            7.52070436616911       -8.12764850296080       -0.37213408030318
H            5.10760401341000       -8.21187096491425       -0.16943616931172
H            3.21612713928075       -8.27125657265607        0.02704033601840
H            0.80315514475850       -8.33984153081056        0.23355679380504
H           -0.48936838062898       -6.25242012173509        0.33400627672708
H            0.64095402784271       -4.11233197932797        0.22550118189789
H            1.53849717700721       -2.44900937958151        0.08031851923920
