27
 energy: -5.604623153205 gnorm: 0.000683667094 xtb: 6.5.0 (97a52f5)
C            0.93633910133944       -0.18909664108215       -0.13430843316120
C            2.42482745793958       -0.13817341309949       -0.11515860152930
C            3.14625821727770       -1.27163897104132       -0.11842307389110
C            4.59676397463092       -1.27864491941164       -0.09712225590726
O            5.17594434424666       -2.35504306029844       -0.09584813289770
O            5.27438148569197       -0.07967810217361       -0.07747945377915
C            4.54922232525718        1.10402850224504       -0.07555454604745
C            5.24193621174805        2.29831788021658       -0.05480300585257
C            4.58113786614735        3.53454206879880       -0.05354517594215
C            5.28352095740172        4.75385903446864       -0.03303421565407
C            4.61948163613021        5.96377091420463       -0.03623912888688
O            5.28501260997467        7.17084406171350       -0.01679231441345
C            3.20074637127857        5.96316091521729       -0.05931443637355
C            2.49664951882133        4.80489858747273       -0.07723240723319
C            3.16111220137430        3.55322552016316       -0.07562703977634
C            2.46455752410992        2.33914079603583       -0.09629787274958
C            3.12356938096754        1.12323270285185       -0.09529027190128
H            0.57333458646718       -1.21679776044707       -0.11542413049304
H            0.54259299403846        0.28286032441733       -1.03472432795860
H            0.51819065121357        0.32207805344140        0.73305053787703
H            2.65026437905238       -2.22366705888848       -0.13549590985533
H            6.31537262421492        2.26729797417033       -0.04098655199341
H            6.35670933606340        4.73820215618386       -0.01615948933095
H            6.24983149108551        7.03065746837242       -0.00110437796344
H            2.69735753374286        6.91332099967225       -0.06235016573851
H            1.42074733491496        4.82293195186139       -0.09440447726272
H            1.39081788486956        2.36300001493539       -0.11442074128511
