45
 energy: -9.553758686501 gnorm: 0.000788202230 xtb: 6.5.0 (97a52f5)
C            1.28352407492211       -0.34459457732498       -0.67277783240939
C            2.61047714990668       -0.23458225259050       -0.00160208993250
C            3.24852730218355       -1.38774922392152        0.29273413961798
C            4.58805638005944       -1.43303903154408        0.81931290164451
O            5.07922638266295       -2.51991142178517        1.10604350414144
O            5.27316448250154       -0.25033353668816        0.95792510829903
C            4.62077567088701        0.93514879363539        0.67737740397918
C            5.39372893238072        2.11327336604132        0.81469646551387
C            4.86260895782847        3.33679529324747        0.60086529519642
C            3.49211288014038        3.48129358229001        0.28404006095599
C            2.92847833673552        4.76441522788052        0.13321009561620
C            1.59546120757357        4.92397343269652       -0.08688197771877
C            0.74938621042181        3.80456295265967       -0.14987709751364
C           -0.69659946688412        3.93844074975910       -0.33099747267262
C           -1.43569970271363        5.09771293415807       -0.34892972094861
N           -2.71345012560542        4.66238799665377       -0.54000437007658
C           -3.87704784882216        5.51766714903811       -0.81891902052399
C           -3.94069016235193        5.90649515958732       -2.25920028227483
C           -3.33829295125009        5.11126546397630       -3.21887241149238
C           -3.39410460105394        5.44707177990822       -4.55405778366680
C           -4.06213819893232        6.58771117291809       -4.94613832364933
C           -4.67387365078879        7.38582304921304       -4.00191926738291
C           -4.61583045980170        7.04611898459936       -2.66613202982868
N           -2.73107516898014        3.33027256945130       -0.66749313144660
N           -1.54522413926081        2.88845022631659       -0.52891131215345
C            1.29621259194282        2.54688205596843       -0.02184116477867
C            2.67328640196079        2.32836133751928        0.15949208597053
C            3.27472441864177        1.01438903899018        0.27816402672374
H            1.18326138994260       -1.30674508220288       -1.17668186789411
H            1.16180996088262        0.41810666577395       -1.44221886108323
H            0.46814926849336       -0.27821439020857        0.04800514438638
H            2.76450463941658       -2.32857394638788        0.10822269069411
H            6.42807146241825        2.00480647905801        1.08918588027217
H            5.47097032251992        4.21884600229760        0.70327213767060
H            3.56936218284499        5.62591276800238        0.20878249372384
H            1.17765339522882        5.90908507309863       -0.19591770513511
H           -1.10603954663937        6.11694108488603       -0.25264437677415
H           -3.81977454732191        6.40341905695799       -0.18241640914175
H           -4.77976588474145        4.97143043476252       -0.53719753559781
H           -2.81656517951549        4.22671024477924       -2.90089285331723
H           -2.91614752611950        4.82029838925380       -5.28890388741886
H           -4.10777491948945        6.85439537272651       -5.98915755408082
H           -5.19791349530884        8.27624055987112       -4.30773109547036
H           -5.09497189619529        7.66577979232584       -1.92784913510066
H            0.60932546928582        1.72710922233620       -0.00155286492729
