65
 energy: -14.724788347817 gnorm: 0.000888327869 xtb: 6.5.0 (97a52f5)
C            1.07734278360082        0.10774569468152       -0.03217701339944
C            2.56757468395352        0.08514509118105       -0.03093206078236
C            3.23562625098499       -1.12569985826498       -0.04502947915248
C            4.62396678865724       -1.21848939464524       -0.04566112056814
C            5.23629166460583       -2.48390801533628       -0.06942942132385
C            5.79006502370542       -3.57354477434008       -0.09996928695041
C            6.44057261974970       -4.82482725183505       -0.13831500405812
C            7.80086762757484       -4.90892270430624       -0.42012084378969
C            8.43849819264430       -6.13127610264578       -0.45854897354550
C            7.72830419090719       -7.28969302159738       -0.21621759844097
C            6.37857032206250       -7.22384002309730        0.06460584973236
C            5.73946963712966       -6.00228181514930        0.10336072702189
C            5.38951679893232       -0.03457805172521       -0.02977673122989
C            6.81562059381427       -0.06192361172455       -0.02684275427234
C            7.54169942171429        1.07816388472044       -0.02254683472617
C            6.91397988974135        2.35781234001954       -0.02170306103999
C            7.66476994619517        3.55476944700769       -0.03029690008147
C            9.07115990632680        3.53020312901163       -0.04478202417217
C           10.29201528540741        3.47589155880776       -0.06806184695908
C           11.69967669290893        3.38378606457847       -0.10157124049529
C           12.49102458494491        4.52809710002014       -0.12212237684181
C           13.86647729660001        4.43280061619543       -0.15937539731053
C           14.47375753396236        3.19344110862147       -0.17645329854131
C           13.70317510546966        2.04855003545542       -0.15587950327787
C           12.32769480615547        2.14212409140014       -0.11874294465445
C            6.99746090286413        4.77190924026693       -0.03481445762260
C            5.61233126557065        4.86486450965671       -0.02984927764244
C            5.00716177592468        6.13471162848778       -0.04588185659658
C            4.48298753802930        7.23867035660252       -0.07132698479259
C            3.88648962838148        8.51708031086200       -0.10557147857857
C            2.53512023317053        8.66519802855132       -0.40270068507623
C            1.95478013823027        9.91591373676378       -0.44014783621584
C            2.71431445962590       11.03903681848247       -0.18147086411190
C            4.05596809567485       10.90936838221529        0.11535097603185
C            4.63769591343282        9.65944248921688        0.15317194326786
C            4.84268833465163        3.67951121531608       -0.01926650443321
C            3.41824049271733        3.70704147483073       -0.01529149499156
C            2.68927410423501        2.56768624582261       -0.01500995402018
C            3.31246476472088        1.28305430535265       -0.02042805877692
C            4.72944608822300        1.21989664657228       -0.02033872745640
C            5.49807019973825        2.42332437880734       -0.01781265588444
H            0.66423823018168       -0.90162662809461       -0.03397636964207
H            0.69618987987527        0.62091180097776       -0.91591424566229
H            0.69447040291168        0.61805094357530        0.85247030185896
H            2.66423447205911       -2.03696819903414       -0.05794951021947
H            8.35099000048411       -4.00276287315679       -0.60886609670735
H            9.49250969508152       -6.18198019343380       -0.67803825883999
H            8.22724729099709       -8.24463751795424       -0.24630392834233
H            5.82334882998085       -8.12818813014464        0.25338107888002
H            4.68667455605761       -5.94655563586248        0.32199060135596
H            7.31060499673931       -1.01712128417228       -0.02822991064418
H            8.61661179363414        1.03370991486358       -0.02155759897281
H           12.01307325415573        5.49282968570722       -0.10953809110220
H           14.46778970879929        5.32714772740141       -0.17597751407179
H           15.54869908383832        3.11975611634724       -0.20656107612267
H           14.17662277194782        1.08037270481689       -0.16947398048913
H           11.72251548511656        1.25167643838144       -0.10315735947250
H            7.57630664403450        5.67853199938660       -0.04592322908587
H            1.94648489110576        7.78654426048685       -0.60480461153994
H            0.90712329934937       10.01662266396188       -0.67240113418580
H            2.26044008892774       12.01624600848281       -0.21180032345166
H            4.64986986962544       11.78596552478438        0.31678672153957
H            5.68417045936933        9.55388201560124        0.38363687488150
H            2.92474316421631        4.66311098596343       -0.01308232745224
H            1.61508954863865        2.62388636634946       -0.01315295673344
