59
 energy: -12.753692420519 gnorm: 0.000720027107 xtb: 6.5.0 (97a52f5)
C            2.16409210946330        0.75955261788334        1.49456128939458
C            2.89812082554398        0.59155524595511        0.21379003271606
C            3.41602333524630        1.68528838381691       -0.45219588698045
C            4.08810890922487        1.55015157142213       -1.66351508247270
C            4.60987642764504        2.67493006404883       -2.32136172357926
N            5.04424807717780        3.60285607888546       -2.86824531278462
C            4.23080927392317        0.27926434681750       -2.21044574644525
C            3.71482035786314       -0.81887178773102       -1.56766946588529
C            3.04151559951212       -0.68345704662895       -0.35505829369189
N            2.49520792353287       -1.84484469461537        0.31040861254725
C            1.18584476963040       -2.29832721649002       -0.01476352482285
C            0.50616188203692       -1.75159551701036       -1.10053001403155
C           -0.75367704468641       -2.18450112042949       -1.44050944529320
C           -1.36050194371590       -3.17353568470204       -0.69612523022275
C           -0.70272461248299       -3.71659073862711        0.38840486294651
C            0.56759923887298       -3.29641428049810        0.74697878402396
C            1.23136457990262       -3.84400080151159        2.01869809801981
C            0.67727151718337       -3.09897843066152        3.24656691406140
C           -0.03714676213534       -1.91709451311097        3.10885421254749
C           -0.49443746478978       -1.22607027428188        4.21128036593276
C           -0.23686037589414       -1.70234086610679        5.47873362527362
C            0.48209890593370       -2.86755718565649        5.63722684903247
C            0.93803301581268       -3.55400752975906        4.53083326461887
C            0.93657115860342       -5.35175760309940        2.08266269061747
C            1.65125777472906       -6.22667335930585        1.27819045005486
C            1.36921728083841       -7.57681214413078        1.26972175379983
C            0.35209864663560       -8.07340843678046        2.05683360924761
C           -0.38458042215830       -7.21475525049218        2.84480263684868
C           -0.09773606414319       -5.86546212867900        2.85172981506526
C            2.74901323160737       -3.60998514915566        1.99600082951569
C            3.58586002199736       -4.34902257553708        2.81650865086121
C            4.94159674046016       -4.09805893625829        2.87528895570562
C            5.48558137148851       -3.08900077004394        2.10987312139595
C            4.67433697416630       -2.34728704330564        1.28428078537012
C            3.30626942056811       -2.59718504243579        1.20654347339292
H            2.63294986465175        1.51990837658632        2.12010869719633
H            2.14875348619832       -0.17256656351429        2.06014072368219
H            1.13136904322100        1.05831906506766        1.31211216020166
H            3.29819362047167        2.66640088376258       -0.02762139717479
H            4.75015030642335        0.16862045896822       -3.14706602937143
H            3.82113358535282       -1.80207204220858       -1.99167588798656
H            0.98436718048814       -0.98114864489704       -1.67850097172853
H           -1.26467669248377       -1.75305233530701       -2.28564475198611
H           -2.34849293988681       -3.51647311223047       -0.95614694241275
H           -1.18722019614739       -4.47356450271721        0.97913801878398
H           -0.23139135563355       -1.53250546089124        2.12358897940500
H           -1.04988440079370       -0.31160163272604        4.08185513072787
H           -0.59250728457149       -1.16415014595219        6.34219396357909
H            0.68981484262714       -3.24259621406985        6.62607775074126
H            1.49801677230907       -4.46268962981286        4.66360269820224
H            2.43310642575091       -5.83579350658833        0.64990673942423
H            1.94140456292054       -8.24265000645378        0.64458932553326
H            0.12915612754284       -9.12787137309483        2.05139345842823
H           -1.18758385952445       -7.59710534981304        3.45347499756368
H           -0.69011011905084       -5.19721558821303        3.45183441549383
H            3.16833107654149       -5.13962390553141        3.41482671730449
H            5.57219496702028       -4.68601314434068        3.52182908552711
H            6.54303771903624       -2.88582936057771        2.15490246028613
H            5.09505258796327       -1.56479844723360        0.67845670180267
