36
 energy: -7.500004491650 gnorm: 0.000286462570 xtb: 6.5.0 (97a52f5)
C            0.99993438042442       -0.00070150972781       -0.27460516593414
C            2.47750416106305       -0.09435990425789       -0.11875713762136
C            3.24063078287678        1.02877340343859        0.07243479422482
C            4.61375696190460        0.93719977799149        0.21779435769921
C            5.42293668413781        2.21738562905695        0.41468256566772
F            6.11403294508243        2.11644113567219        1.56131415086530
F            6.26044528259180        2.35734297909688       -0.62538421849353
F            4.58502049582530        3.26563716446531        0.47419842492822
N            5.28279869290373       -0.19523041451791        0.18921578080165
C            4.55850962582724       -1.30256173842257        0.00332355414447
C            3.16043135107805       -1.32018257732361       -0.16051184200716
C            2.48453192153822       -2.57386992052762       -0.36780597138336
C            3.15055652191125       -3.74670930691495       -0.41461456408792
C            4.55838725830132       -3.74507512777528       -0.24995718092780
N            5.40091816632636       -4.77151046395525       -0.26330715715588
C            6.63207335654430       -4.25211527387608       -0.05338283613444
C            7.85691154703403       -5.06141769115948       -0.00184798654639
C            9.04463497947501       -4.56415893118639        0.53529417574316
C           10.17622233276745       -5.34489803233020        0.57227801321870
C           10.14414549836138       -6.63639142791480        0.07317824567756
Cl          11.56372863814579       -7.61460187121421        0.12248472653708
C            8.97209730511071       -7.14467418678102       -0.46109446995077
C            7.84021205370447       -6.36478692436915       -0.49400724654446
C            6.55228046555441       -2.87213389136685        0.08791983997905
N            5.23592872060382       -2.54387548903042       -0.03920538355404
H            0.65974326584100        1.03304636283079       -0.20668656125559
H            0.48991258343764       -0.56635058867328        0.50586072035841
H            0.68558981481134       -0.38738885052746       -1.24454048544522
H            2.77858753309904        1.99970713212640        0.10993786052476
H            1.41583585482511       -2.57013484538224       -0.49094563727656
H            2.64068150580947       -4.68045885984673       -0.57148753535546
H            9.06854488511662       -3.56557857241675        0.93499346679209
H           11.09497944581946       -4.96795225381892        0.98974177740324
H            8.96378597442596       -8.15061928446835       -0.84630940752195
H            6.92306976766735       -6.75106921210879       -0.90382705610235
H            7.35264924005043       -2.16904643478405        0.24568538873159
