84
 energy: -17.555349060940 gnorm: 0.000441910999 xtb: 6.5.0 (97a52f5)
C            2.20190412118503        1.86114115661451        0.01348017562105
C            1.07277133797344        0.88954301799269        0.00509711387779
C           -0.20051918141466        1.27923149513107        0.39213815626503
C           -1.25463748813918        0.38629475107402        0.42608425507223
C           -2.60906047722971        0.85162676262124        0.83694226627501
C           -1.03936956399605       -0.95473269541109        0.04399812330091
C           -2.16312442535741       -1.93248680691170        0.05968722546559
C           -2.29753895057009       -2.85979809720252        1.13396167098375
C           -1.37354030805865       -2.85365280186067        2.20225726952932
C           -1.48329530236961       -3.73223197520575        3.23864181832495
C           -2.52443128134922       -4.65831114680138        3.25905692257126
C           -3.44120158468694       -4.68960516664708        2.24485079605887
C           -3.36590168560996       -3.79842243620820        1.15597669680967
C           -4.32908985568481       -3.80803996065090        0.08404200326947
C           -5.42153319612103       -4.71437907003896        0.05422483203719
C           -6.32546383479017       -4.71634352699182       -0.95932710861683
C           -6.21331590477218       -3.80504042008577       -2.03984872173641
C           -7.12588328361067       -3.79360165042393       -3.08930938677037
C           -7.02267358846875       -2.89483897442368       -4.15810238956937
C           -7.96996315604870       -2.90740339633361       -5.21303356074629
C           -9.10335852986068       -3.87373492046728       -5.18760910111432
C          -10.22965649899728       -3.63147499982348       -4.37290032513755
C          -10.30159542139459       -2.41554213267809       -3.51489146176803
C          -11.26355700953640       -4.54808385449596       -4.35414255360232
C          -11.23251568914830       -5.69786169375984       -5.12891414107013
C          -12.37457210624472       -6.65429490912324       -5.12370339343735
C          -10.13025088881612       -5.92191124735943       -5.93953468115399
C           -9.06284611435174       -5.04464758567597       -5.97359816456958
C           -7.89392084185224       -5.32775697230049       -6.85294491858332
C           -7.83147000493387       -1.98499468895139       -6.29105087642080
C           -8.77159010975984       -1.97194051281321       -7.34515981067754
C           -8.65808770711895       -1.09786608143155       -8.38493292321772
C           -7.60081122496924       -0.19075680473525       -8.41965238680346
C           -6.67517162088488       -0.17008094542744       -7.41326212268213
C           -6.75474765001316       -1.05612682471314       -6.32051904724530
C           -5.79379073111061       -1.04361749778660       -5.24657789494125
C           -4.70094388876883       -0.13770743155388       -5.21718617371795
C           -3.80020192963325       -0.13200528225417       -4.20078560403599
C           -3.91484434837843       -1.04017437216276       -3.11783519744166
C           -3.00103694915462       -1.05302121368111       -2.06941846991099
C           -3.10994789289515       -1.94521582952178       -0.99567783431709
C           -4.19255994685143       -2.88497839577598       -0.97654680841433
C           -5.13137437541575       -2.88025785311879       -2.04217323449017
C           -4.99927597253959       -1.96205227470130       -3.11336390619695
C           -5.93677839271603       -1.95892826537005       -4.18016548790825
C            0.25283437281222       -1.35656046255573       -0.35545130135571
C            0.52243364354315       -2.76683129368115       -0.75307207047977
C            1.28153322406309       -0.43382545686290       -0.35240284916157
H            1.84842683163913        2.87809527947894       -0.16274657488419
H            2.92993568567055        1.62503730381255       -0.76399294641550
H            2.71847563687074        1.84616475011551        0.97422307890921
H           -0.37048356676954        2.30237321302037        0.67770190470449
H           -2.54518587958649        1.69365877430392        1.52750408889059
H           -3.16353284270105        0.05677279379246        1.33731818619355
H           -3.18872869431865        1.17090130996012       -0.03020471918403
H           -0.57104570424111       -2.13710769586444        2.18881641484993
H           -0.76624340024712       -3.71276093466317        4.04332160568650
H           -2.60552066546348       -5.35170669551866        4.08051432570529
H           -4.23435316478259       -5.41329919107417        2.28728665838549
H           -5.54330055297134       -5.42158322137166        0.85394509344600
H           -7.14473425409916       -5.41477605842091       -0.95564182395060
H           -7.93650422117903       -4.49852459587411       -3.07762330235785
H           -9.75603404178708       -1.58387021794542       -3.96258146628888
H           -9.87077383824395       -2.60889506393452       -2.53155670497727
H          -11.33409460017553       -2.09332876636887       -3.37320742843203
H          -12.11713537764517       -4.36236429061874       -3.72634217408999
H          -12.96661461760190       -6.55918437960945       -4.21230769406983
H          -12.02274127255746       -7.68527585357181       -5.18355229870564
H          -13.03459715378085       -6.47362636386530       -5.97333967065700
H          -10.10484635880505       -6.80462081530387       -6.55393740371497
H           -7.80039646424334       -6.39559205726609       -7.05600416780381
H           -6.96396036964110       -4.99824789280419       -6.38753720597905
H           -7.99311319131454       -4.81136972536216       -7.80864281697694
H           -9.58991940057425       -2.66989528928358       -7.31784712753145
H           -9.38420414850144       -1.10662184143961       -9.18160916936058
H           -7.51643384100227        0.49866468952601       -9.24413109119534
H           -5.87224333814474        0.54214165582848       -7.46453629490283
H           -4.57722896458669        0.56709885024306       -6.01875928854157
H           -2.98152812726750        0.56714230287761       -4.20422426928068
H           -2.18504399797065       -0.35440363710254       -2.08567403783012
H           -0.35630447347199       -3.22173970787073       -1.21199366085528
H            0.79807900559021       -3.36864247344836        0.11383132277314
H            1.33738602419023       -2.82379124837148       -1.47594297097938
H            2.26960555375821       -0.74846216150202       -0.63884178875517
