102
 energy: -19.842969645470 gnorm: 0.000886141505 xtb: 6.5.0 (97a52f5)
C            2.06124300736137        2.01728010522690        0.00539824984192
C            0.96592285431908        1.00756768438172       -0.01503399062563
C           -0.30922876190881        1.33818482285626        0.41600958349680
C           -1.33218957591258        0.40679164694287        0.43905757405816
C           -2.69330543388428        0.80831555100099        0.89358360763680
C           -1.07814355723738       -0.90478400767509        0.00092506819106
C           -2.16590509213760       -1.91988358499829       -0.00250312075764
C           -2.25169594807489       -2.84318195804505        1.03162122260125
C           -3.24342054846110       -3.81406126015342        1.08496712192680
C           -3.27732499531084       -4.77652848601092        2.21930434034429
C           -3.87580027364029       -4.41145771189253        3.43752893003159
C           -4.45998568131726       -3.05217170687632        3.61479074402215
C           -3.90001531360081       -5.32106393944022        4.48009270565501
C           -3.35812909052984       -6.59040212916955        4.34967030493075
C           -3.42592176332510       -7.56875863169943        5.47126360834165
C           -2.78583383784457       -6.94608268366759        3.13848763276517
C           -2.72394131750553       -6.06106428049792        2.07674511853285
C           -2.11288428416371       -6.48839855034697        0.78662765936493
C           -4.21291863392547       -3.86916719246780        0.05298730214711
C           -5.26057296624116       -4.83015509420682        0.05972110119081
C           -6.18309235502198       -4.87406012043792       -0.93128341882691
C           -6.14410655124316       -3.96092165885629       -2.02037573849456
C           -7.10586472613713       -3.99753841201203       -3.06051442341120
C           -8.21421500427902       -4.98992327336155       -3.03989794215387
C           -9.34768239730070       -4.76901587545217       -2.23778920396307
C           -9.46020011697881       -3.54288658082219       -1.39832001563554
C          -10.35066119481772       -5.72146137849199       -2.20610497821799
C          -10.27404010927800       -6.88345331811277       -2.95804581317557
C          -11.38016611366865       -7.88122982523696       -2.93408646513698
C           -9.16327256635700       -7.08052274826879       -3.76326945098996
C           -8.12813197860798       -6.16326062598938       -3.80903993783468
C           -6.94659965001889       -6.41062881137520       -4.68250925415512
C           -7.00739535750084       -3.08911701169425       -4.10662346960952
C           -6.00076900358510       -2.13420681502799       -4.17342570318158
C           -5.95248371041817       -1.18769002754356       -5.32050547595030
C           -5.07000818789918       -1.41413946065624       -6.39139179470836
C           -4.16532657033919       -2.59821015536414       -6.39559254910683
C           -5.02439566847231       -0.50630277430701       -7.43460459026683
C           -5.83847399580387        0.61541178890848       -7.45877772724347
C           -5.79948508882271        1.56094606930423       -8.60952531905511
C           -6.72017485125960        0.81786392257633       -6.40871022643179
C           -6.78356280236013       -0.05416229410481       -5.33615293409558
C           -7.74312352183753        0.19660009270561       -4.22413902921470
C           -5.03573017058513       -2.07320196419823       -3.13723295649953
C           -3.99042497274587       -1.10940571436151       -3.14140701654556
C           -3.07378450182707       -1.05879357544307       -2.14508190220981
C           -3.11866051644177       -1.96524195030350       -1.05067179761878
C           -4.14378294455610       -2.94197696580904       -1.01556401575408
C           -5.11146587658445       -2.99253672705377       -2.06241464276365
C            0.21163876027577       -1.25067696567689       -0.43777217651697
C            0.51226605542762       -2.63963846436475       -0.88549953164532
C            1.21077506838115       -0.29343998203819       -0.42576043114793
H            1.67364974436432        3.02241549629678       -0.16767228320771
H            2.80201295458351        1.81088463068884       -0.76866599579375
H            2.57216053053240        2.01500022652359        0.96944499831366
H           -0.50706322323010        2.34331010512523        0.74465206003428
H           -2.64500391938073        1.63426451772876        1.60462990421518
H           -3.20507914561151       -0.01986578920362        1.38564517551046
H           -3.30547399222701        1.12719177832225        0.04889434493359
H           -1.52266300051642       -2.80497647151679        1.82102963104066
H           -5.01972687488982       -2.74856440791182        2.72887592633120
H           -3.67614413145051       -2.31302239736334        3.78614757036201
H           -5.14445577199464       -3.02058538850788        4.46371168849754
H           -4.35467826472139       -5.03894443572980        5.41340497047862
H           -3.52690897553153       -7.06235573788294        6.43250945916152
H           -2.52352404624010       -8.18092535466011        5.51309888765078
H           -4.28084536964076       -8.23618002254139        5.35170986463337
H           -2.37960764313093       -7.93547685862271        3.02189648709335
H           -1.35074220949438       -7.25304346282105        0.94405586662739
H           -1.63689004679112       -5.64876482889038        0.27827797446894
H           -2.86968411766499       -6.90031306223375        0.11753047265389
H           -5.31052514823198       -5.53037257255869        0.87511344472064
H           -6.96602494877658       -5.61163069681711       -0.90612207195032
H           -8.97521626474964       -2.69111826633732       -1.87785008241475
H           -8.98837883969207       -3.69385097438991       -0.42603373140470
H          -10.50421530088814       -3.27441441513865       -1.22874909700222
H          -11.21258668641733       -5.55501955460339       -1.58417791360645
H          -11.93761011988813       -7.83058339423748       -1.99737779117646
H          -10.99504416000643       -8.89727641185487       -3.03478696226271
H          -12.08029130945304       -7.70326245838658       -3.75183116292330
H           -9.10314405225506       -7.97189103680568       -4.36264349427571
H           -6.85439545030108       -7.46755702422140       -4.93657781926664
H           -6.02275821525993       -6.10934648582230       -4.18643117258716
H           -7.02780402569687       -5.84685700534296       -5.61289885482161
H           -7.73963224568763       -3.12460948421170       -4.89316880122243
H           -4.63697147129189       -3.45586338773631       -5.91322223865003
H           -3.23897925969528       -2.38043543438424       -5.86162103367428
H           -3.90636650859497       -2.89444381675955       -7.41345725250846
H           -4.34261085532946       -0.67698227742790       -8.24913145552875
H           -4.82244877834630        1.55189583764892       -9.09531512425293
H           -5.99759929142684        2.58369107486585       -8.28483404329654
H           -6.54873878253225        1.29337095455772       -9.35622241878153
H           -7.36779698122137        1.67674526191371       -6.42715953478387
H           -8.04323239152334        1.24478282962071       -4.18715210721584
H           -7.29896767411726       -0.05286843482014       -3.25935102041374
H           -8.64349637409281       -0.40721585389211       -4.34578281349764
H           -3.93751070440984       -0.41154326198926       -3.95863952316260
H           -2.28923330944342       -0.32295544465886       -2.17155751998942
H           -0.31427922101927       -3.05155094834416       -1.46630113423150
H            0.68082295287355       -3.29463836508698       -0.02959258551143
H            1.40332890669789       -2.67024724054057       -1.51419263118204
H            2.20193584783010       -0.56402723947640       -0.74471388824549
