117
 energy: -21.709171125704 gnorm: 0.000649257138 xtb: 6.5.0 (97a52f5)
C            3.39185153713012        0.09675711454123       -1.24035618533389
C            2.02997722608418       -0.48983290737611       -1.09788864418610
C            0.90920394770907        0.32420102944766       -1.06502518396584
C           -0.36206160643506       -0.19491330509732       -0.89507547262276
C           -1.53689613233785        0.72003814178505       -0.86083393521303
C           -0.52695384352111       -1.58572782257022       -0.76510632231549
C           -1.86784831551710       -2.16409722003948       -0.58320808449067
C           -2.26779612845907       -2.90523211647895        0.49250147407816
C           -3.59125465728009       -3.38081349192443        0.41932075654855
C           -4.23755067041080       -2.99679027730797       -0.72604112833154
S           -3.18596021636039       -2.01847937557745       -1.71276847153857
C           -5.59123683577787       -3.34643309101919       -1.10673954626636
S           -6.71753238088579       -2.24428653977941       -1.86791366017792
C           -7.99617225876202       -3.43274545922215       -1.87022635816951
C           -9.36601250820066       -3.19812195457159       -2.35486915301389
C          -10.46171153944732       -3.34453096447960       -1.48354939012615
C          -10.26347644386903       -3.73248501035143       -0.05900545532390
C          -11.74234824372825       -3.13333320979049       -1.96227942954999
C          -11.97688569215305       -2.76652102919589       -3.27773101239389
C          -13.36186993938461       -2.51133875786796       -3.76280823224398
C          -10.89081781448338       -2.60302179297033       -4.12236390446098
C           -9.59453791988606       -2.82343856317604       -3.69146359681976
C           -8.46027690770079       -2.64626369065778       -4.64054381484679
C           -7.52980880606637       -4.60959824336076       -1.34839381881274
C           -6.18663096313001       -4.56534293038410       -0.92962132674975
P           -5.31853821786252       -5.99489772585674       -0.25766586455756
C           -6.50215668263371       -7.33491656861953        0.05242961106432
C           -6.53011174735359       -7.71636737016421        1.34916395837304
C           -7.37231560842081       -8.75156219345211        1.88068501054137
C           -7.40607226483824       -9.08821568741498        3.19329383915723
C           -6.65591207515310       -8.50077189306698        4.17760046441889
C           -7.23059414142627       -7.86794437760308       -0.97768304339140
C           -4.06159317195584       -6.59881781604086       -1.39473757966643
C           -3.81598480934372       -7.95129280470218       -1.43716284137997
C           -2.82257682202800       -8.44627266875711       -2.26326400123651
C           -2.07545129115111       -7.57852279928496       -3.03548745961863
C           -2.31780663605820       -6.22019407382450       -2.98033185049966
C           -3.31193655086036       -5.73192714803860       -2.15391279259210
O           -4.59573343906983       -5.62242014031457        1.15688759421573
B           -4.27583923645288       -4.22853533432946        1.62503221486715
C           -5.62010150102493       -3.51959678524853        2.02777999292009
C          -10.41251182130656       -2.49868747310966        3.72415441810485
C          -11.52420405462129       -1.71174079100182        4.13976572899559
C           -9.70300844585868       -3.66181924256211        3.55233685651963
C           -8.46804348674721       -3.76440306174442        2.98284877540241
C           -7.84500023114480       -5.10671363250711        2.84840039059107
C           -7.79583541991358       -2.57978134696316        2.49272377148808
C           -6.51521913232579       -2.46991904762699        2.03812743848203
C           -6.08304467947514       -1.13783969952003        1.51612056696056
C           -3.18028940090566       -4.36890792554561        2.84726746473041
C           -2.17303290367209       -5.31288531630223        2.65487218932519
C           -2.06440385914021       -6.14012112738773        1.42140056479871
C           -1.22437111438342       -5.50963385652465        3.64675665039177
C           -1.22717891206396       -4.76847787957171        4.81222233798045
C           -0.21265794094756       -5.01095649621554        5.87546120219772
C           -2.21466979334554       -3.81539597377935        4.97245758407250
C           -3.18261857750430       -3.59289385500788        4.00354684384457
C           -4.17358706521096       -2.51033536901755        4.24376192574079
C            0.60500777012244       -2.42138651608936       -0.80062794217941
C            0.47433226142506       -3.89954050470108       -0.66133853211468
C            1.85900441109031       -1.85714710704765       -0.95220450623401
H            3.36756608838857        1.00663214311116       -1.84152155830842
H            4.07336103169183       -0.60257523713951       -1.72648278748740
H            3.80827711026037        0.34929653743781       -0.26434245380196
H            1.03284536200025        1.38798668436512       -1.16651614439806
H           -1.24243537037862        1.73565931124063       -0.59348289868358
H           -2.27184456950676        0.38567171653902       -0.12746427657811
H           -2.02683539221795        0.75668303866582       -1.83455110364403
H           -1.62096559755071       -3.10574485632814        1.33046962037399
H           -9.31247518540776       -3.35827523467446        0.32071623025187
H          -10.26861541347481       -4.81716982653781        0.05440281405516
H          -11.05134070519795       -3.32472951797906        0.57546410454245
H          -12.57776785949258       -3.25048444814188       -1.29479212930921
H          -14.08925814169989       -3.10655846567112       -3.20923550341343
H          -13.46181910275317       -2.76612493858377       -4.81877382090178
H          -13.62624335040846       -1.45982160819045       -3.64380028492030
H          -11.06150182324949       -2.30233690264280       -5.14100726206813
H           -8.78805422818075       -2.75082991172871       -5.67560729173683
H           -7.68218403978184       -3.39014576105741       -4.46433250561007
H           -8.01229712040155       -1.65836006997557       -4.52691027347906
H           -8.13934006692853       -5.49465299230016       -1.26697798648825
H           -5.87591824954299       -7.20115507722096        2.03639776575594
H           -8.00846015037866       -9.27338251603315        1.18677956498318
H           -8.07791674602866       -9.88116466434142        3.49524417867311
H           -6.36106157535088       -8.40563383519861        5.16287011466620
H           -7.48059828422370       -7.89622699924051       -1.98132519506854
H           -4.39841865589896       -8.61642051958516       -0.81926973181591
H           -2.63102627961500       -9.50622457477224       -2.30045984600202
H           -1.29956854096730       -7.96219896739414       -3.67782259880423
H           -1.72909297563717       -5.54024237149806       -3.57416627756249
H           -3.48359060300789       -4.67236134322503       -2.08203313813117
H          -11.37505349078898       -0.65538472100239        3.89497645536523
H          -11.67761351990606       -1.78346324935207        5.22106899531070
H          -12.44681989027740       -2.03918985054255        3.65033585871258
H          -10.17010495532588       -4.57193945920961        3.89855364504830
H           -6.99083974577831       -5.20942042286739        3.51834598413630
H           -7.49559395501238       -5.26395325575916        1.82771962813053
H           -8.55007631925295       -5.90571887387697        3.08029770236635
H           -8.38832082699485       -1.68212444762357        2.47609909963933
H           -6.16385234838157       -0.37064088219439        2.28676657563879
H           -6.70038030120184       -0.83668370746676        0.66926183253606
H           -5.04763215893698       -1.16501173143997        1.17614462290926
H           -2.39934992932800       -5.58692511237523        0.54505402924526
H           -2.68139933358211       -7.03542714661137        1.50345071934022
H           -1.03575714763396       -6.45301746051961        1.23827621136465
H           -0.46271323942328       -6.25618152929934        3.50448671671817
H            0.74291422188134       -5.31357377877745        5.44513126032387
H           -0.54224399766437       -5.80053157005566        6.55195899742056
H           -0.03872635082423       -4.11145159097828        6.46743441179032
H           -2.22752968720815       -3.22790425559496        5.87370397484516
H           -4.21320664677061       -1.82860777955763        3.39452003702554
H           -3.91460990378784       -1.91884833154889        5.12289896851503
H           -5.16967916257579       -2.92248666729741        4.40753248300127
H           -0.46480717510139       -4.25484908669860       -1.08729151162978
H            0.50215936457210       -4.19441493740258        0.38829732754799
H            1.28374754346452       -4.41778630937849       -1.17704284488818
H            2.72414309187609       -2.49644955995899       -0.96132159299903
