59
 energy: -12.236063472896 gnorm: 0.000832261258 xtb: 6.5.0 (97a52f5)
C            2.22469069391796        1.85686520168554        0.08984596746297
C            1.09900152889590        0.88169678395490        0.08819898875470
C            0.00747221926225        1.06560315867524       -0.74399531099494
C           -1.04548389018807        0.16829902655245       -0.77403586620667
C           -2.20225061665712        0.42894031503093       -1.67428075495585
C           -1.00013247539684       -0.97334694421250        0.04471598472010
C           -2.09858795426695       -1.94783292051211        0.03731254144270
N           -2.91609308097185       -2.17293216263430       -0.99680400833449
N           -3.76446882495291       -3.09830756867907       -0.65988528755986
C           -3.49362603281009       -3.47465302416583        0.59299537837147
C           -4.22200753399444       -4.49997143142559        1.32913449764668
C           -3.84748403523520       -4.82715920473793        2.62746418946790
C           -4.52640200163418       -5.79598497548618        3.32312409461854
C           -5.60067088761574       -6.46644263427213        2.74510629288331
N           -6.30334178334379       -7.47347555871555        3.49776777441872
C           -5.79174554119596       -8.73334995177771        3.87025814875490
C           -4.55761978563640       -9.32688058374731        3.60982912116812
C           -4.32328670507306      -10.59468313973500        4.08308290063768
C           -5.29821821108944      -11.28384217638588        4.81093623230655
C           -6.52086739014994      -10.71373962082010        5.07336141253377
C           -6.77440315543883       -9.42574778659088        4.59830561141922
C           -7.92988309254186       -8.56346247075065        4.68575907696782
C           -9.17969765482497       -8.72009781715552        5.28762896380294
C          -10.08548794189268       -7.69001844941187        5.20252727667295
C           -9.76835887951530       -6.50535446155657        4.53077197336349
C           -8.54325797909224       -6.33652643270417        3.93353556611831
C           -7.61505793071764       -7.37419432451808        4.00611736521345
C           -5.98410142074620       -6.15435617874484        1.43193424798083
C           -7.11202177967636       -6.86787457130126        0.77817308157002
C           -5.29339568730917       -5.17334954693558        0.74912197713534
O           -2.43742911011010       -2.76455765289197        1.07531030113362
C            0.11001708172046       -1.17758089356601        0.88094620013194
C            0.20133098836149       -2.37708391111754        1.75740938800362
C            1.13419665789478       -0.24725202360225        0.88953758082310
H            1.85891524446331        2.87740363856191       -0.02746745500378
H            2.91648522679040        1.65051703774242       -0.72731978740467
H            2.78502230139134        1.81205317940636        1.02428847908072
H           -0.02208655203330        1.93284186986037       -1.37949997818637
H           -2.19384875714709        1.45239078068417       -2.05054953494868
H           -3.14513096663601        0.27728998169157       -1.14813361952254
H           -2.18323620379504       -0.24424777544001       -2.53158169887852
H           -3.01899641539947       -4.30745542391567        3.07670587598396
H           -4.24146354981667       -6.04796663063090        4.32963417833396
H           -3.81596295313635       -8.78942727066926        3.04633829572932
H           -3.37417466200546      -11.06705151351504        3.89016531680470
H           -5.08709194829733      -12.27767000008379        5.16994635508313
H           -7.27672034169722      -11.23879538088681        5.63002402766234
H           -9.41520552170615       -9.63288091848928        5.80564220617445
H          -11.05455469795346       -7.79504156469617        5.66190153054439
H          -10.49710320903485       -5.71308496723376        4.48199129398048
H           -8.28848265793962       -5.42861443710262        3.41654144758424
H           -7.43980651017661       -7.71840436912087        1.37557490270911
H           -6.81804931439264       -7.24531755234394       -0.20144752144224
H           -7.96547835259676       -6.20328818592148        0.64300991152715
H           -5.58186115573491       -4.92432204282381       -0.25570708545533
H           -0.50881422061968       -2.30448368843274        2.58121413828828
H            1.19981063684780       -2.49213666896755        2.18007381643588
H           -0.03062073607911       -3.28330051239576        1.19756086144121
H            1.98254752873843       -0.40542365300108        1.53154313602416
