56
 energy: -11.786449633741 gnorm: 0.000545683712 xtb: 6.5.0 (97a52f5)
C            3.47243523114189        0.98018051688568       -0.58529349013092
C            2.13877309509531        0.33165874462035       -0.44890942383387
C            1.05983015595164        0.77908512440916       -1.19330535883289
C           -0.18408468158249        0.18076257212967       -1.10389599135557
C           -1.31444912006215        0.71111773982403       -1.91440613243274
C           -0.35373246455374       -0.92564875579947       -0.25513032381593
C           -1.65466869914910       -1.60301600422399       -0.16061013943973
N           -2.48949084633574       -1.79221584036694       -1.18785122506328
N           -3.54065216829045       -2.42049117896688       -0.75308703193788
C           -3.38401278304831       -2.63891667870558        0.55577132688489
C           -4.35706588966064       -3.31066797686502        1.40773031522700
C           -5.53430944455387       -3.83248431894789        0.87834461478804
C           -6.45495055709381       -4.44512627234858        1.69290218710624
C           -6.23113779703260       -4.55152417940310        3.06277127089694
N           -7.20565813425615       -5.17179210874299        3.91672612651756
C           -6.95012299581326       -6.13672379591507        4.91461373833408
C           -5.76115859325526       -6.74394010512472        5.31920182320219
C           -5.80242083216760       -7.67188641379421        6.33077316787732
C           -7.00966323899185       -8.01299969525145        6.94725790559138
C           -8.19167554103560       -7.43280965962881        6.55504326988920
C           -8.16521510580436       -6.48769889694685        5.52800267051761
C           -9.20601478370359       -5.71564884790481        4.89277538716287
C          -10.58515036791415       -5.64922052144443        5.09921911761503
C          -11.32622293630066       -4.78676735118695        4.32803366615217
C          -10.71694057790619       -3.98548889755443        3.35829083047469
C           -9.36159618915649       -4.04053049737492        3.14411243325943
C           -8.59412653777686       -4.91761423224838        3.91088061782878
C           -5.05158333283492       -4.03383386467095        3.59054043231725
C           -4.12841433257965       -3.42487004389926        2.77561227424181
O           -2.18986934569971       -2.13680963497945        0.97404457896287
C            0.73148981441762       -1.38688181997176        0.50654768528620
C            0.58425911949992       -2.56513961634277        1.40420210250732
C            1.95651712367225       -0.75364261425451        0.39285265011493
H            3.37460736166074        2.06389877008747       -0.65929454683841
H            3.98461756943312        0.62602241721651       -1.48064953571316
H            4.10826484104881        0.76295759905793        0.27369049747888
H            1.19419513254455        1.61517724835617       -1.85647632899838
H           -1.15630587322375        1.75678964456647       -2.18027763981253
H           -2.25226851262039        0.64978870812585       -1.36171492287459
H           -1.42937136383429        0.14148372362957       -2.83673245762409
H           -5.71224433229032       -3.74732057433063       -0.17921902115489
H           -7.35673443818778       -4.86095332876009        1.27905639902828
H           -4.83679796350575       -6.48795986085184        4.83361855096914
H           -4.89052776311665       -8.14608292008934        6.65452142485251
H           -7.01245512164463       -8.74383582231454        7.73909301674974
H           -9.12560798951539       -7.69292531529378        7.02092982556236
H          -11.04535410266888       -6.26501618348041        5.85147848150439
H          -12.39191648070873       -4.72338646283743        4.47447618411205
H          -11.32087878211671       -3.31289738154618        2.77170305635902
H           -8.88680323298882       -3.41570467194746        2.40936019491178
H           -4.88271434553561       -4.09936569323438        4.65098094857014
H           -3.22003369507225       -3.01823700973363        3.18520941720780
H           -0.19659971965346       -2.38907711637461        2.14449008014652
H            1.50975803965562       -2.78247142536764        1.93817834991257
H            0.30911855774416       -3.45267176252521        0.83354400793069
H            2.79135497140839       -1.11692745738994        0.96531294179628
