122
 energy: -24.692226611407 gnorm: 0.000598054469 xtb: 6.5.0 (97a52f5)
C            2.02088130081580        1.98160236126108        1.03532583308262
C            0.92437690453495        1.01365011445829        0.75415122333304
C           -0.29113985880264        1.10693290354871        1.41523104167344
C           -1.31133749587897        0.20073337343003        1.18904192172679
C           -2.60294021541735        0.35449700474172        1.91276766169935
C           -1.11032206927005       -0.82444928367503        0.25999307593264
B           -2.25776990534450       -1.85103787673593       -0.03300031022372
C           -3.70695435951087       -1.33517863688654       -0.33449791389048
C           -3.90449334733524       -0.30779117633564       -1.26204903545899
C           -2.76374238501418        0.32635638208583       -1.97780464711995
C           -5.19048012515866        0.14577749627392       -1.49415656662461
C           -6.28536199999927       -0.41150737067614       -0.85080447505967
C           -7.66130803937966        0.10143490712044       -1.09971088304971
C           -6.06731017623526       -1.43157063308252        0.06263806409015
C           -4.79515159349989       -1.89923330673641        0.33837486336935
C           -4.61745007284757       -3.00399082816830        1.32016341024489
C           -1.95583841788811       -3.37902503943953       -0.02741758587235
C           -1.26070756313721       -3.94897103739549        1.05107440380038
C           -0.77866723249550       -3.12248154974241        2.19075460963032
C           -0.99434196944165       -5.29952990656336        1.03410041254651
C           -1.40441000901524       -6.11121851914309       -0.02230228927398
N           -1.11483908938109       -7.51271229002480       -0.02294397057628
C           -1.29026235853285       -8.40192544142640        1.06150049410851
C           -1.80392370072592       -8.19914284458411        2.34349622713022
C           -1.90416284153791       -9.26891275210996        3.19475523505546
C           -1.51237415669326      -10.56820355770002        2.80910701607305
N           -1.65007194322111      -11.66849275856583        3.70984128558830
C           -0.76486469153434      -12.79522268171532        3.61434344655421
C            0.58935105798112      -12.62101452912296        3.33148960512077
C            1.43237390470803      -13.70466269407270        3.23152229866203
C            0.94213970755633      -14.98359324398644        3.41385963164497
C           -0.39653133467146      -15.17411374280141        3.69864317833525
C           -1.24183449727999      -14.09225418261490        3.79913017952359
C           -2.69902973443138      -11.67950017026989        4.69034819437945
C           -3.96467471001529      -11.17565310993639        4.39246755615792
C           -4.96967576995969      -11.19632212569365        5.33294238738279
C           -4.73317084762669      -11.72206838083184        6.58873199864188
C           -3.48573789311311      -12.22882582614076        6.89951082955910
C           -2.47878947026908      -12.20934600993913        5.96101269647547
C           -1.00296086024949      -10.76776437359706        1.52881870278993
C           -0.89551421874037       -9.69167629393603        0.66309371318756
C           -0.44096049535424       -9.59655126089972       -0.70828945497604
C            0.09301891704322      -10.53858325271718       -1.57229779281156
C            0.48481039821853      -10.15063139789878       -2.85079777700554
N            1.06204571368915      -11.10086442967421       -3.74788655022013
C            0.71124663275037      -12.49012338533316       -3.65448600045755
C           -0.59650284015455      -12.88255895721015       -3.37167328582614
C           -0.92576663022752      -14.21569221465911       -3.27457020043050
C            0.04207594605147      -15.18424728870753       -3.46038933951133
C            1.34210972566951      -14.81312721637270       -3.74585105971545
C            1.67416073361773      -13.48072480640839       -3.84287979929338
C            2.03338989776798      -10.68520373082122       -4.72035635895854
C            2.98518936172531       -9.71361447243026       -4.41306526373970
C            3.91993759501310       -9.32446728149575       -5.34568185172246
C            3.92540683127465       -9.89822633305181       -6.60271972811754
C            2.99174586269585      -10.86540234642344       -6.92264856889376
C            2.05588160088886      -11.25654721865444       -5.99190561029246
C            0.32184649499420       -8.80349676727973       -3.23700294614557
C           -0.20452946566678       -7.86490533769480       -2.38791604394533
C           -0.59741528236966       -8.25704597047558       -1.10718928916149
C           -2.09725721710017       -5.52584447195133       -1.08073698028838
C           -2.37540972712973       -4.17777169712325       -1.10297465772056
C           -3.13571055322353       -3.60607298005193       -2.24713659801960
C            0.10823915190243       -0.93868661638582       -0.41602438312484
C            0.35799416945500       -2.03534100363940       -1.39129987553703
C            1.10996263840642       -0.02354815286289       -0.14732575119722
H            1.62261442699777        2.95243667936413        1.33374984285746
H            2.64410885175817        2.13713787280186        0.15347455806618
H            2.66123269397397        1.61846629491292        1.84037391844414
H           -0.44244488970891        1.90244754346809        2.12331981861850
H           -2.45780258152792        0.83341778824568        2.88204221182869
H           -3.07352315739945       -0.61129802088590        2.09258492209099
H           -3.29928620884741        0.96542427704440        1.33709631588063
H           -1.96585678752926       -0.39125658925260       -2.16465692771550
H           -2.34709797282060        1.14729635446923       -1.39300313116141
H           -3.07674066285439        0.72690671475659       -2.94294303263734
H           -5.34553120885312        0.94927638458799       -2.19235248021877
H           -7.73498687446268        0.57719695647777       -2.07867394556895
H           -7.94189616291751        0.83840676229764       -0.34583928087872
H           -8.39303315970385       -0.70718341953008       -1.06876232234929
H           -6.90867544557143       -1.86555074149150        0.57349801434641
H           -5.41972858230625       -3.00900032881230        2.05901807061681
H           -3.67699312153485       -2.90529133747813        1.86052234544190
H           -4.61652590550728       -3.97228843172801        0.81837571771838
H           -1.45144682244640       -2.28897171026893        2.38780861370488
H            0.21041021135365       -2.71325188399351        1.98143992972341
H           -0.71123830823607       -3.71296549826763        3.10544643752917
H           -0.43833648916918       -5.74063228332731        1.84134491307539
H           -2.12352657983319       -7.21701856444284        2.64237131135873
H           -2.28467701142517       -9.12500540959380        4.19060679119772
H            0.96884674751883      -11.62257577679170        3.20068057850717
H            2.47699876036296      -13.55510346457373        3.01149554356539
H            1.60291516995916      -15.83150121644393        3.33432958021361
H           -0.77982371327446      -16.17169675614129        3.83975452224402
H           -2.28732322111706      -14.23591120783046        4.00938394921134
H           -4.14855741542816      -10.78030592316203        3.40868357446716
H           -5.94347082508499      -10.80372404922028        5.08874229730354
H           -5.52091629375882      -11.73778354992953        7.32431859963454
H           -3.30062794193022      -12.63872509118157        7.87917073060725
H           -1.50345165950317      -12.59594038889606        6.20028109913779
H           -0.71768695268398      -11.75071816539544        1.20480385304746
H            0.22732095928749      -11.55286981785570       -1.24717570878931
H           -1.34952929016048      -12.12533213186864       -3.23916781385952
H           -1.94071928241819      -14.50451794380309       -3.05439568921073
H           -0.21678725909696      -16.22778445335597       -3.38353103639415
H            2.09787662258901      -15.56804385793194       -3.89056344500182
H            2.68728379446614      -13.18643096595953       -4.05465156641302
H            2.98642962119228       -9.28012054785696       -3.42814659428603
H            4.65000892417750       -8.57222017609021       -5.09430561887838
H            4.65777541493898       -9.59264052053557       -7.33221207114222
H            2.99583383884510      -11.31380898649956       -7.90291638409788
H            1.32285282256548      -12.00505663117740       -6.23762551436519
H            0.61765737821639       -8.51790840069444       -4.23109878747657
H           -0.30588239972463       -6.83715635803966       -2.68697158704139
H           -2.43591364804596       -6.15032630406119       -1.88736314884302
H           -2.95255154266594       -4.16955231658124       -3.16291650175709
H           -2.84878666232191       -2.57265076218658       -2.43663425349864
H           -4.20783818245568       -3.62583810463341       -2.04820384514034
H           -0.54494282160406       -2.28196304072775       -1.94843217458102
H            0.69508360122553       -2.93869450346244       -0.88155573380970
H            1.12327623989964       -1.75379772985602       -2.11577954440464
H            2.05506358258683       -0.11498404587753       -0.65289827415770
