91
 energy: -17.319060707223 gnorm: 0.000589898983 xtb: 6.5.0 (97a52f5)
C            2.01511257328658        0.09749065799727       -1.01208157755664
C            3.25899036077604        0.21997102783298       -0.18868626464318
O            4.04888101647393        1.09885525776213       -0.45856443689552
C            3.48388969627937       -0.73440004906205        0.91390866205999
C            2.67797601441372       -1.87096930379130        1.02146535293395
C            2.83575084068006       -2.78089094956115        2.03338553542312
C            3.82546459363913       -2.60767915971841        3.00697571657710
C            3.98676490330070       -3.51643165171394        4.08426707927864
C            4.95514485026378       -3.33469017865470        5.01711189143965
C            5.86291588996582       -2.24772250611227        4.94983866957979
C            6.90532621646633       -2.05204753410811        5.90709226285936
N            7.24093841464627       -2.98501561257822        6.87543313419977
C            7.18529167336412       -4.44569909597119        6.75317555613882
C            8.45213149412527       -5.13328453543173        7.23301852125888
C            8.37341562481915       -6.62128221688075        7.06627199082264
O            8.24097830752923       -7.09920827604334        5.95640122088771
N            8.44669232496433       -7.40199536325708        8.19893116127216
C            8.34670020884637       -8.84673576908805        8.12228676284903
C            8.24405199479524       -9.51570700338997        9.48724215113462
C            8.08469254421558      -11.03337190721038        9.40048119131778
C            7.99452873298713      -11.70316995047576       10.77140978028492
C            7.81889625947543      -13.21834364472041       10.68652860580057
C            7.78092918430676      -13.89522031379662       12.05295567156470
C            7.64482612916380      -15.37172943522027       11.93771938079987
N            6.49147222958766      -15.99430221333082       11.86484261799830
C            6.77993156562850      -17.31103563042127       11.70437613560671
C            5.90858839932766      -18.44805834822793       11.56580094093018
O            4.68464270016787      -18.37018722463180       11.58178078011023
N            6.60405508092362      -19.63214929741691       11.41179007264451
C            7.98830988945006      -19.73750517389461       11.38389965104344
N            8.52640981232279      -20.99056865875511       11.22258306664759
N            8.79620315503894      -18.70402736873408       11.50514449244582
C            8.16353522780275      -17.51424763892049       11.66467254148018
N            8.71136229681380      -16.26204047075275       11.81093083354064
C           10.16276768302887      -15.99355367768457       11.82942301011041
C           10.83511514107214      -16.40894869364311       10.51437581081366
C           12.06352168128146      -15.48868768437707       10.42228933461388
O           13.27028474119577      -16.15506733605462       10.76324149020445
C           11.75200445647094      -14.31510587852623       11.40258233279982
C           11.69764951707245      -12.96467369609443       10.68790298409705
O           12.88918829182376      -12.65355509916621        9.99881846855549
O           10.50324260964241      -14.61676301276601       12.07171506154989
C            7.65790006423677       -0.86355610023230        5.84553736151717
C            7.47263589386442        0.05863339868011        4.85743856593580
C            6.50387355509637       -0.13761184699323        3.86026299082910
C            6.31162261511270        0.79596435363000        2.81178841173009
C            5.35911510089704        0.60173566134330        1.86744275928008
C            4.50138212178059       -0.53072513979438        1.88196218534406
C            4.67200053159952       -1.47786931406714        2.92751751453726
C            5.68643362540407       -1.29262689916395        3.91363331763965
H            1.89736290140228        0.98162477711632       -1.63721082592739
H            1.12930351571387        0.01544616077725       -0.38269418462396
H            2.06400008219789       -0.77002496239165       -1.66944360739488
H            1.91248461547482       -2.04262886608226        0.28554986903490
H            2.19338877026915       -3.64262034839627        2.09046133890879
H            3.31285006284743       -4.35222583011624        4.16013439565204
H            5.00266157427163       -4.00333415509834        5.85533256257943
H            7.95647539440840       -2.72256908133243        7.54847397819615
H            7.01582024686264       -4.70630350451330        5.70331872449658
H            6.32349786804029       -4.81703647885192        7.31760148508001
H            8.64025227146063       -4.88742402493502        8.28190588948774
H            9.31368774095332       -4.75822553117150        6.67266325061682
H            8.55346684041750       -6.99440130997724        9.12951599516960
H            9.21649695569351       -9.22101279631848        7.57180592489729
H            7.47226527725458       -9.09005191414909        7.50908004226519
H            7.39956105153234       -9.08719208266536       10.03898380383148
H            9.13113109196130       -9.26951183627041       10.08191604985152
H            8.92239623160353      -11.45950368293497        8.83632985307020
H            7.19139105359991      -11.27644168101806        8.81335390796785
H            7.16436929865675      -11.26843538589672       11.34041237638057
H            8.89298571458797      -11.46953010477778       11.35424071526620
H            8.62965791172023      -13.65408484906448       10.09178732796613
H            6.90220052777181      -13.45629763278557       10.13446017310790
H            6.94999747045832      -13.50215423736257       12.64743381715017
H            8.69131561206019      -13.66263506586002       12.61471367365324
H            6.05773071705195      -20.47101618104996       11.30722538091110
H            7.98562662899618      -21.83245995366791       11.18160212306655
H            9.51396204799399      -21.14501407473380       11.23943999774517
H           10.58537914062133      -16.55874115911186       12.67152160099865
H           10.14254622639386      -16.25643170026310        9.68201541457348
H           11.12875048108963      -17.46212121473397       10.51788895177559
H           12.20023051910285      -15.09886060722679        9.40172875915557
H           13.20201317186383      -16.52923599932609       11.66323180436611
H           12.52445408403107      -14.29099485440153       12.18273700582137
H           11.46368967513195      -12.15882685126155       11.39364848055060
H           10.89259034005338      -12.97709221843501        9.94701786595217
H           13.65275172124911      -12.66170537836435       10.60845994334426
H            8.42108778858510       -0.70255554400908        6.58664939823362
H            8.07830526476290        0.94781158178918        4.82715709418018
H            6.94054168053823        1.66846836356475        2.77422056187260
H            5.23924259592805        1.32111071842874        1.07894832933429
