79
 energy: -15.292829571319 gnorm: 0.000784347165 xtb: 6.5.0 (97a52f5)
C            2.23411674578238        1.64045058032810        0.01708414664170
C            1.06868049340636        0.71381058791911       -0.01871840529777
C           -0.03012060304480        0.92344151444513        0.80085998053225
C           -1.10676482044948        0.05505221419320        0.80658715590995
C           -2.26767552881600        0.33075621473192        1.69658432888942
C           -1.08708283283057       -1.05145747364387       -0.04731223298621
B           -2.30087966161874       -2.04387949876808       -0.07226991855670
C           -3.75967448654207       -1.48162136954271       -0.18985355171035
C           -4.06842098202854       -0.53598511081120       -1.17194632760841
C           -3.03764516112889       -0.03169861860175       -2.11989286568583
C           -5.35778429335635       -0.04011412782762       -1.24147148145879
C           -6.35217213713440       -0.47730838321409       -0.37886743781517
C           -7.73853089176456        0.06051235546881       -0.46495580182828
C           -6.02593236438925       -1.42132228643200        0.58249854342202
C           -4.74333666416104       -1.92570953023031        0.69871208215495
C           -4.44904493877462       -2.94795696215276        1.74001324880759
C           -2.05767103284045       -3.57764805457392        0.01662930560414
C           -1.18902118708211       -4.09414112921550        0.99293257325230
C           -0.48177980577829       -3.20571309838443        1.95453578928463
C           -0.96888505261919       -5.45077448216836        1.04008155513322
C           -1.60290598344778       -6.32874579866635        0.15655544242779
N           -1.36242144709254       -7.74970026938022        0.22369333220551
C           -1.68964305814016       -8.48083529349736        1.37643548901058
C           -2.29141607338818       -7.87335008880059        2.48261274768818
C           -2.62154430158442       -8.59702612789458        3.59915033586777
C           -2.36441743663892       -9.96190980957552        3.64531515424619
C           -1.78808247259409      -10.58790080430955        2.57286452244920
C           -1.44293735009800       -9.87343317503292        1.41541123652304
O           -0.88431640873593      -10.55040150150103        0.35295686876316
C           -0.56357952555398       -9.82457000574900       -0.77370919344050
C            0.01775221893702      -10.48476160598304       -1.86712588669812
C            0.37570976304492       -9.80114703204398       -2.99789897283288
C            0.16939004093657       -8.42917376539834       -3.07646221551164
C           -0.40112002531124       -7.75924967107003       -2.02526455449799
C           -0.79009572794053       -8.43084190903025       -0.86232047650378
C           -2.47382800471577       -5.79282800575502       -0.79616329576413
C           -2.70204000223979       -4.43974079423845       -0.88664083341043
C           -3.64122469500219       -3.92411257864365       -1.91907106289098
C            0.00981065959586       -1.28088422965709       -0.88328442083535
C            0.06785826508495       -2.46209961900987       -1.78745517845017
C            1.07620763685890       -0.40082673386683       -0.84356592075266
H            1.92762669206276        2.64919418338224        0.29745728293301
H            2.71809036815459        1.70162251752263       -0.95870007444702
H            2.97676450783803        1.30113053427284        0.74048996291410
H           -0.04265573484443        1.78040723724262        1.45091296115960
H           -1.96754749887479        0.91117990227408        2.56998940437853
H           -2.71678331694549       -0.59390180314632        2.05707807082471
H           -3.03664580787264        0.89452627752670        1.16710374898800
H           -2.28481956812145       -0.79170684786864       -2.32617087509628
H           -2.52903060554148        0.84235360791816       -1.71077921812626
H           -3.48427862193599        0.25429894439352       -3.07340006730665
H           -5.59610869945495        0.69917654378719       -1.98558269857171
H           -7.87261269159095        0.67627907660978       -1.35533585651391
H           -7.97034320704036        0.67614170161285        0.40529684498485
H           -8.46833238464886       -0.74923724159796       -0.50860490959968
H           -6.79058111900866       -1.76659158661341        1.25578700476142
H           -5.10012879037686       -2.82724942677737        2.60684564315618
H           -3.42049366670163       -2.87060714044241        2.09025256998445
H           -4.59528523697545       -3.95494230377525        1.34730813277396
H           -1.08953874763838       -2.33949655461478        2.21320619768715
H            0.45585348034452       -2.84422101242540        1.53072300498013
H           -0.25001880938744       -3.73211539201637        2.88142088951964
H           -0.28708056145342       -5.85389243345049        1.76704540418918
H           -2.50582341756832       -6.82047876703677        2.44607279010805
H           -3.08335253961624       -8.10919539416191        4.44204149936055
H           -2.62461052362927      -10.52795490480732        4.52493896588949
H           -1.59236554572962      -11.64531827024321        2.59559142941364
H            0.18185645720684      -11.54517675917231       -1.79271094907169
H            0.82346777359281      -10.32496733026273       -3.82673281569766
H            0.46035865118465       -7.89232488956064       -3.96461410632085
H           -0.54559114652619       -6.69562943309894       -2.08586571410198
H           -2.97763589329617       -6.46337208121667       -1.46873760927258
H           -3.69832141893519       -4.59917980195165       -2.77401766192589
H           -3.32229604659247       -2.95138448624223       -2.29157943877559
H           -4.64635655496542       -3.81577310482222       -1.50987080243718
H           -0.92308762014699       -2.73153362877368       -2.15103928130533
H            0.48168293471020       -3.32796733373560       -1.26918470079068
H            0.69284050163798       -2.26241528345845       -2.65886343564438
H            1.93197354192191       -0.58350183773473       -1.46922539729312
