84
 energy: -16.396840573697 gnorm: 0.000507372443 xtb: 6.5.0 (97a52f5)
C            2.18163185329223        1.81925507453792        0.54873956450069
C            1.04406968161446        0.87081469791968        0.39186512955863
C           -0.11368107287190        1.02225320887435        1.14067427114566
C           -1.16673172824876        0.13123331609922        1.03512564115015
C           -2.39242789428434        0.32988079565794        1.85527154884218
C           -1.05903964085102       -0.93810549305763        0.14240351880769
B           -2.24230451831359       -1.95499895135922        0.01506879069535
C           -3.69941769350255       -1.45190528106924       -0.25320219282525
C           -3.96120256205354       -0.56678703023550       -1.30054710249608
C           -2.86852078495739       -0.08406557020621       -2.18731110461796
C           -5.25903441655892       -0.12799014928827       -1.49444025596816
C           -6.30093171603760       -0.56350400498051       -0.68769388988785
C           -7.69387553506976       -0.08032070308625       -0.90058535769952
C           -6.01817880555481       -1.45189981235274        0.33909512530565
C           -4.73137072603987       -1.90001268905462        0.57549050895707
C           -4.47714268169646       -2.86963061671366        1.67667159577325
C           -1.98490151964815       -3.48477363705578        0.05380200936688
C           -2.60518874467405       -4.22563854692439       -0.90952295517388
C           -2.49917735456668       -5.63128937831195       -0.93154578128722
C           -3.12675000296346       -6.37600759122101       -1.94621741288369
C           -3.10255129584597       -7.76520688397905       -1.97138442485969
N           -3.50594108365113       -8.44976884553565       -3.11209173333645
C           -4.25308935043401       -7.78561249656222       -4.18219310912625
C           -2.93353058846229       -9.73919865813328       -3.52294200691624
C           -2.65102180647809       -8.45098536966802       -0.76763862231985
C           -2.97964306217045       -9.79262521489342       -0.52853314248522
C           -2.67208064918466      -10.40638748602415        0.65766449871145
C           -2.06011138517907       -9.68500970596544        1.67216931644630
C           -1.75260317332800       -8.36553333335732        1.48184817516534
C           -1.99702160084719       -7.71837936724975        0.25585567763662
C           -1.74390807862343       -6.29606073555103        0.07692797131922
C           -0.88686138442374       -5.50188497490186        0.92459985615350
C           -1.11520860253199       -4.10586504644752        0.99573011489221
C           -0.46894611995168       -3.33671659478801        1.99534881880984
C            0.45168893113959       -3.88307414010276        2.82345689054208
C            0.86842314759989       -5.23153377209999        2.65471044095845
C            1.94252166381216       -5.75582656272582        3.40033853432532
C            2.43543093378360       -7.00172983068383        3.13487738867591
C            1.89045572609245       -7.76022720141280        2.10148117659576
C            0.83391226360241       -7.28164993047709        1.37708081570261
C            0.24872684931616       -6.03362801139883        1.66612985074519
C            0.09924166237691       -1.11195229407541       -0.62020005961600
C            0.25374936614972       -2.26464260513951       -1.54990653078624
C            1.13716783140767       -0.20956201388225       -0.47296446709640
H            1.83080640462409        2.81189912078434        0.83500574536872
H            2.74005802673006        1.92198159178436       -0.38287715868605
H            2.87220623936834        1.47154369105252        1.31840924456658
H           -0.19045175717264        1.84971348392967        1.82377875796906
H           -2.20967915428441        1.01509327474734        2.68419236936587
H           -2.73538737372867       -0.61343845195685        2.27946405240626
H           -3.20104505701360        0.74367576300714        1.25157024008139
H           -2.21934382524580       -0.90641515689606       -2.48733143202760
H           -2.25643885968172        0.66236014207264       -1.67954218720055
H           -3.26500981131533        0.37061498372585       -3.09620003948578
H           -5.46612247877007        0.56454248704478       -2.29103969535601
H           -7.77741200179137        0.50432881751649       -1.81782857697616
H           -8.01593190303371        0.55137550284668       -0.07135417802833
H           -8.38935996101045       -0.91760332408931       -0.97565276485427
H           -6.81962088688618       -1.79768130100375        0.96801126901628
H           -5.15159664982799       -2.69790103942405        2.51657545015949
H           -3.45697124337412       -2.78718967038012        2.05114899069691
H           -4.62323659943078       -3.89391571346751        1.33140154160752
H           -3.21731103600063       -3.72946321634583       -1.64072854411793
H           -3.57384845562202       -5.84086752050654       -2.76302443825072
H           -5.06160672323936       -7.18815950155480       -3.76419212333914
H           -4.69268447491623       -8.52133268382027       -4.85399347076813
H           -3.59303855432838       -7.13987608705929       -4.75917844689054
H           -2.07411855314544       -9.99569862076375       -2.90601657295974
H           -2.59215240871791       -9.68489477662424       -4.55563828425079
H           -3.68032113093915      -10.52815351521697       -3.45022132950059
H           -3.54291446030790      -10.33334470759112       -1.26686822785717
H           -2.93578220474740      -11.43955637617120        0.81659692202907
H           -1.84822793100290      -10.15930355538585        2.61681668084999
H           -1.34448052688067       -7.79625309140059        2.29823894247687
H           -0.71856024131531       -2.29491916959036        2.08530646404085
H            0.93161428425452       -3.28068903870722        3.57558502013747
H            2.38899179870935       -5.14825751857898        4.16908982338017
H            3.26295951340476       -7.38923851441045        3.70677174024151
H            2.30727585425672       -8.72745829360060        1.87160714654894
H            0.44911084192478       -7.85955555264120        0.55530909642177
H           -0.70412407952626       -2.56089100555540       -1.97683783970055
H            0.67045827641826       -3.12808618914615       -1.02957024448754
H            0.92015873180019       -2.01794028374754       -2.37760203455717
H            2.03953404069136       -0.34876154591508       -1.04190898953723
