66
 energy: -12.986196080290 gnorm: 0.000694657859 xtb: 6.5.0 (97a52f5)
C            2.18685955366382        1.89335687023467        0.47598848237174
C            1.05633632676372        0.93935427918523        0.30150699206162
C           -0.05648114657072        1.00130975433816        1.12769171847197
C           -1.10268412972957        0.10405807445868        1.00241301853068
C           -2.28240107246547        0.19934680585564        1.90404967569115
C           -1.03143288778803       -0.87822117022086        0.01354882563981
B           -2.19699312059321       -1.90862942321710       -0.17260205234386
C           -3.67343602809349       -1.40782106989720       -0.32853440393268
C           -3.98167982897063       -0.45989381850990       -1.30644707837311
C           -2.92828579102032        0.09111424106108       -2.20125624266491
C           -5.28943083987920       -0.02310709741936       -1.42434578124792
C           -6.29674934525835       -0.52055030647667       -0.61022131865972
C           -7.70007000819003       -0.03777830000488       -0.74014005327293
C           -5.96790344147158       -1.46570912117783        0.34973102167665
C           -4.66929575062093       -1.91443229538295        0.51004597402119
C           -4.36981070012194       -2.94563902840758        1.54094559227099
C           -1.87421616047720       -3.41882599531848       -0.10456125768761
C           -0.94779500532746       -3.81910216312281        0.85447406775030
C           -0.59279965062814       -5.13494806587457        0.99222361057333
C           -1.15085430272735       -6.12043734454592        0.16019026093790
C           -0.80439537592909       -7.49576158022758        0.27675632134971
C           -1.34707942085634       -8.43120620208034       -0.54320846950252
C           -2.28430954142975       -8.07121522176968       -1.55630150339532
C           -2.85506638217676       -9.01379049488924       -2.41870591177744
C           -3.75622319286038       -8.62801343209663       -3.39052321885967
C           -4.11538999233235       -7.30380806920747       -3.53482507519072
C           -3.57508452937116       -6.32033095937951       -2.69776322310897
C           -3.91986039702883       -4.94298361135370       -2.81570638050562
C           -3.38212872545450       -4.01240329802597       -1.98760979478049
C           -2.45667111130254       -4.36810193937909       -0.97008876657769
C           -2.08617428327199       -5.72861173050774       -0.83147747755515
C           -2.65047696438376       -6.70876593496089       -1.69647404918738
C            0.08028961919485       -0.96247691624744       -0.82825941168436
C            0.18820034310726       -2.01927180201662       -1.87112907911904
C            1.11257963258611       -0.05696025442523       -0.66204912595000
H            1.83381026217954        2.86088317076842        0.83589480088428
H            2.70929992443114        2.06189414436361       -0.46684406111426
H            2.90963204254746        1.50921507016520        1.19723004084300
H           -0.10302080439757        1.76276855678739        1.88608846890093
H           -2.09593047695589        0.88253556223687        2.73372899322253
H           -2.52664151764957       -0.77436836498443        2.32825462674184
H           -3.15685328055282        0.56325031240979        1.36323128067246
H           -2.29059694403086       -0.70391335093947       -2.58732077523238
H           -2.29722150150649        0.80191975464244       -1.66641098620532
H           -3.36295098873739        0.60805309937516       -3.05802102895771
H           -5.53192022894646        0.71725625723401       -2.16608957091980
H           -7.84264912809521        0.52811034368375       -1.66186117260323
H           -7.96541835504068        0.61091073021750        0.09601563173364
H           -8.40045727485887       -0.87425951589853       -0.75276139009146
H           -6.74174640203147       -1.85655136920698        0.98672981726452
H           -5.02076221871593       -2.83592503072416        2.40949272943906
H           -3.34055167355200       -2.86992358975851        1.89080391472337
H           -4.51342510256315       -3.94868061723561        1.13699442311038
H           -0.51414687589849       -3.06990623180169        1.49402540294303
H            0.12213329155914       -5.42783290396545        1.74176903471383
H           -0.09660260032301       -7.78573645142516        1.03422600295000
H           -1.07290180573106       -9.46695860625053       -0.43982351092463
H           -2.58076400263263      -10.04960815528396       -2.31547389598784
H           -4.18378747471621       -9.37004198328114       -4.04517160063211
H           -4.81825016817091       -7.01313129399941       -4.29660953522202
H           -4.62115080593854       -4.64959094486152       -3.57778469597286
H           -3.65850473323579       -2.97938078742718       -2.09271801195264
H           -0.79221840477126       -2.40591147324927       -2.14859652681034
H            0.78765198311965       -2.85704372790709       -1.51243129479034
H            0.65747340126988       -1.63145606653243       -2.77635289727635
H            1.97911551507382       -0.12644991605825       -1.29582009941636
