123
 energy: -23.064324687565 gnorm: 0.000556695998 xtb: 6.5.0 (97a52f5)
C            1.32974834579903        0.30440802004366       -4.48213333569065
C            0.42840442521851       -0.21794743906149       -3.41770499263463
C           -0.13187250459055        0.63332542086118       -2.47916989094174
C           -0.95282879748519        0.16238078760915       -1.47048324158244
C           -1.52316755890046        1.13725983798361       -0.50337329123555
C           -1.21661516571569       -1.20874217855800       -1.39012958233125
B           -2.14286466862551       -1.78026739686992       -0.24932239127320
C           -3.59059713298424       -1.30064176855996       -0.11153712828656
C           -4.11812229683496       -0.52819620873661       -1.17521292891862
C           -5.41340772413991       -0.12840052635291       -1.01482982401461
C           -6.18744471815090        0.68636899158164       -1.94110868563921
C           -7.50692082296337        1.02429860031786       -1.64923557695377
C           -8.25063231762579        1.79787025382282       -2.51214857695690
C           -7.71310388770990        2.26838363786506       -3.70371263765746
C           -8.57310341289808        3.13341325965444       -4.63929143634888
C           -9.82116432810269        2.33824093357048       -5.06653578594070
C           -9.00269407225200        4.41292053842252       -3.89737025332862
C           -7.80207782804912        3.54426643226686       -5.90928731697461
C           -6.39627214988043        1.93206820617516       -3.99636546786741
C           -5.64695868728518        1.15867385928985       -3.13686270739344
S           -6.02871801301421       -0.74604150900180        0.49780989909736
C           -4.53744191006058       -1.53579412161990        0.90390553213883
C           -4.39535285515540       -2.32053977161884        2.12114232763167
S           -5.28399881783667       -3.81172062178113        2.40187892804791
C           -4.55561469897106       -4.06691889284206        3.95412342890558
C           -4.78208961279854       -5.24110853492694        4.77812790810767
C           -5.69083329919502       -6.21950980858851        4.37901132045934
C           -5.89122039969937       -7.35357876795053        5.13298693195837
C           -5.19356820794520       -7.56520260663352        6.31597304834672
C           -5.43744565041836       -8.84942096486471        7.12492848480219
C           -6.91682302225137       -8.91218390828984        7.54849027055106
C           -5.09546266610056      -10.07297329364457        6.25392243345568
C           -4.56608811493663       -8.90036816308313        8.39536728615212
C           -4.28663599565541       -6.58973324199116        6.71579171883682
C           -4.08192196721959       -5.45232705308670        5.96640976296437
C           -3.74396498473065       -2.99177669308925        4.26132244740982
C           -3.62261524412344       -2.04682556527620        3.24112532919027
P           -2.76965605015407       -0.48537557676614        3.52621486945358
O           -2.47714655998920        0.28005030866401        2.21418370798653
C           -3.91137179377430        0.51437345196833        4.48378589138115
C           -5.11332892536628        0.81249861570687        3.88863298937147
C           -6.04788996976152        1.56530950969595        4.57786255781467
C           -5.76642187787020        2.00498764658268        5.85738391435969
C           -4.55696675705081        1.69396703034826        6.44963386699768
C           -3.62448948206772        0.94227172280540        5.75826218542119
C           -1.23506523031339       -0.64192667473012        4.45554513417982
C           -0.50889302275384        0.51731843152099        4.59402429096074
C            0.68899574001926        0.50341506086138        5.28829920022432
C            1.14927831668735       -0.67661639755016        5.83836648138246
C            0.41843346729717       -1.83915951309411        5.69170808200411
C           -0.77637282056717       -1.82029999853052        4.99679066812937
C           -1.58303300173857       -2.85091327447264        0.74844629725516
C           -0.51340172160062       -2.52970722557208        1.58283779460962
C            0.18725137071170       -1.22399066151859        1.46463157364213
C           -0.08508355464840       -3.46670997817446        2.50554998903013
C           -0.70593698325717       -4.70019448664200        2.63218750212797
C           -0.25516332573329       -5.68525843337731        3.65343063226954
C           -1.73806483055610       -5.01345703777955        1.76239995560020
C           -2.18126947869820       -4.11193662382413        0.81242600625639
C           -3.25547673530314       -4.52154387985733       -0.13448132152733
C           -0.65468100058486       -2.08332349519823       -2.32284114073855
C           -0.93256579421337       -3.54318693185307       -2.27950440149277
C            0.16029920946664       -1.57368429642824       -3.31922842612724
H            1.08397100616754        1.33656659365588       -4.73557129230927
H            1.24647431205531       -0.28870108397871       -5.39391533928123
H            2.37035054197956        0.27604687102619       -4.15631137338753
H            0.07672247676342        1.68728170687048       -2.53512501636788
H           -0.73371593370671        1.63985472512115        0.05658232176473
H           -2.17759730208175        0.64596698462370        0.21299615155826
H           -2.10939076757743        1.89984448230411       -1.01761567664138
H           -3.52762106467502       -0.27845259698978       -2.04021590880694
H           -7.94058078716593        0.67028700830948       -0.73043444197116
H           -9.26701540360739        2.04430563058479       -2.25831250040481
H          -10.43377522690420        2.06978435242966       -4.20708326703607
H           -9.53571687897241        1.41788235259057       -5.57517854800743
H          -10.44066811775692        2.92154204129442       -5.74722050568450
H           -9.59621841333314        4.17862845353096       -3.01478806453941
H           -9.60310321009034        5.05438006212490       -4.54189583079832
H           -8.13108877251597        4.98101267363401       -3.57352122660924
H           -7.48850242305461        2.66953998679674       -6.47829480906434
H           -6.91876715739150        4.13132382714111       -5.65968368931679
H           -8.42805741918716        4.15342182936618       -6.56091028144121
H           -5.94610556184593        2.27916082268386       -4.90935912500890
H           -4.62994226852657        0.91657480620373       -3.38969781762630
H           -6.23380909269847       -6.07758074512893        3.46090763523049
H           -6.59853170373474       -8.09260558479145        4.79853869583002
H           -7.57642974909131       -8.93443376068969        6.68216764820832
H           -7.18235204521690       -8.04292361082440        8.14942895309238
H           -7.11513534704658       -9.80515151220673        8.14064326155563
H           -5.72517409239356      -10.11650152387332        5.36643322675255
H           -5.23944872658328      -10.99933009469165        6.80935172002586
H           -4.05697593216676      -10.03400576401452        5.92632422990334
H           -4.78607247913017       -8.06239735932423        9.05613996321952
H           -3.50584651658060       -8.87650096606315        8.14522720979640
H           -4.75138842837463       -9.81742838215702        8.95417115017032
H           -3.72660447527326       -6.72059042196560        7.62464656922644
H           -3.36251338168936       -4.72185304673323        6.29217020921865
H           -3.28113752414543       -2.86628755642286        5.22734739147713
H           -5.31868611214099        0.44320265496526        2.89432384860935
H           -6.99300623522787        1.80355767857779        4.11795302735660
H           -6.49371999561596        2.59009232754325        6.39631710107154
H           -4.34009750904600        2.03474170854640        7.44889606248280
H           -2.67915757746281        0.68696458528873        6.20816924861887
H           -0.87918348600530        1.42940483646759        4.14998275619942
H            1.26017573261115        1.41085933363194        5.39636444074265
H            2.08126504008362       -0.69115760348305        6.37963639260834
H            0.78190471051382       -2.76235798832913        6.11274991307400
H           -1.32426916325277       -2.73289088692667        4.84364605187453
H           -0.52338698456389       -0.40220251386186        1.52834021799477
H            0.71266935541652       -1.14813193676011        0.51220284657146
H            0.91820063531251       -1.08925200583719        2.26276340146594
H            0.74291965271399       -3.22887467033643        3.14937715132801
H            0.29978880876036       -5.19749737257183        4.45588725783220
H            0.39283250302739       -6.43982752015249        3.20572965544838
H           -1.10728885147289       -6.19616389218139        4.10423234901524
H           -2.20678900528351       -5.97945138138898        1.82873993728940
H           -2.90184182549370       -5.30220605130250       -0.80907009411738
H           -3.59862510481479       -3.68235121205055       -0.73874234494731
H           -4.11815778529012       -4.91632236342678        0.40246185239395
H           -1.99196055606352       -3.73800864576244       -2.44601902239611
H           -0.64733810737677       -3.96694789487993       -1.31674628462188
H           -0.37494992346301       -4.07823072383501       -3.04936038802344
H            0.59598122415960       -2.24486669774198       -4.03816730856834
