31
 energy: -6.683001189816 gnorm: 0.000823099913 xtb: 6.5.0 (97a52f5)
C            1.19598807818393       -0.16244194471932       -0.35380443269051
C            2.62011506811176        0.06087205875043        0.04386285574883
O            3.23749842189918        0.98022274522983       -0.44620911069731
C            3.23508743918694       -0.86836990488035        1.02087789948507
C            2.76096291018314       -2.17580789352779        1.12598470035439
C            3.29628983082583       -3.07323404573150        2.01696967976564
C            4.34489429574314       -2.70490113533980        2.86031547459674
C            4.91942053265784       -3.61626567930463        3.79927261635475
C            5.92949789029196       -3.23913632484014        4.61374669527986
C            6.46073103756456       -1.91262496691645        4.56685511198808
C            7.50021720054049       -1.49772045712449        5.40036061432159
C            7.98937619056499       -0.21015305386678        5.33106182804383
C            7.46167001281793        0.69621135270040        4.43582200818113
C            6.42152772907763        0.33107552928180        3.58009924311270
C            5.84991963503278        1.24102627654646        2.63925471661091
C            4.84416099139318        0.85900539698636        1.82246263837676
C            4.30042922827858       -0.46119436786864        1.85543023569707
C            4.84952598881494       -1.38562708445792        2.78017433122562
C            5.91358592621505       -0.98827414996015        3.64360609924161
H            0.76413454859695        0.76371027657262       -0.73192257084118
H            0.59518559398930       -0.49102258543647        0.49406063014466
H            1.12555992802841       -0.91028293603471       -1.14297385783957
H            1.96023664104657       -2.49225255553440        0.48057514265423
H            2.90915985935024       -4.07601514952509        2.07284467352038
H            4.53001714041557       -4.61838313250695        3.84751923532878
H            6.35047305531864       -3.93806023966097        5.31543123541727
H            7.91835914832923       -2.19750271004445        6.10309322117316
H            8.79223020746804        0.09075145309791        5.98396259789522
H            7.84990872312866        1.69894976388682        4.38957266931242
H            6.23996611530010        2.24279995089718        2.58935537591267
H            4.43664063164432        1.55591551333151        1.11336844232540
