99
 energy: -19.485709938913 gnorm: 0.000476909760 xtb: 6.5.0 (97a52f5)
C            1.39263580195878        0.86109498166990       -4.43270026129698
C            0.50530611211685        0.22233744356380       -3.42157786890202
C           -0.08736475175137        0.97616214619469       -2.42187301470667
C           -0.89385311503248        0.39863070562500       -1.45814572716019
C           -1.50660258017308        1.27591618792544       -0.42560480062859
C           -1.10745105051178       -0.98325951678958       -1.48729759090961
B           -1.99334549672273       -1.68725079563515       -0.38975188167244
C           -3.45407700953944       -1.27402962368651       -0.19044361233515
C           -4.03192697836643       -0.44666918870578       -1.18498543736337
C           -5.34183500163128       -0.12216823294823       -0.98002083231598
C           -6.16964500814181        0.72198920949161       -1.83020399229667
C           -7.50433679666578        0.95728318460006       -1.49777079293234
C           -8.30340031416232        1.75422033438658       -2.28710748994415
C           -7.78682544304920        2.33560011799573       -3.42802049670469
C           -6.46837434849070        2.11648373157700       -3.77573829796657
C           -5.66648797566166        1.31942388340655       -2.98834691045456
S           -5.90476863867412       -0.88292252473450        0.48625120059667
C           -4.37351242477318       -1.62992341356768        0.81472819607256
C           -4.18490442541094       -2.49765770363009        1.96576578056451
S           -5.06943384612976       -4.00288798107716        2.17166928057908
C           -4.30533706543970       -4.35937358509031        3.68587984300697
C           -4.53358074496652       -5.57368381832434        4.44895540606021
C           -5.46848549412870       -6.51411816369326        4.01208045013094
C           -5.68446820891268       -7.67894394521094        4.71361586683477
C           -4.96917669873812       -7.93389932494809        5.86720043748561
C           -4.03659209376671       -7.01886916023830        6.31557016669636
C           -3.81863847575706       -5.85195691995030        5.61717231733194
C           -3.46974632375806       -3.31535663598124        4.03331775255328
C           -3.37083007182751       -2.30616452284687        3.07365479835416
P           -2.51135021016620       -0.76896900224913        3.45516640590562
O           -2.24354673337264        0.09204172889665        2.19938980641985
C           -3.63947218238832        0.15712384385218        4.49902159315335
C           -4.84915087042779        0.49256191468114        3.94048947523496
C           -5.77517940908263        1.19764811226488        4.68886304858156
C           -5.47724674995007        1.55351176890676        5.99028775889242
C           -4.26043894639407        1.20530902822426        6.54535700184726
C           -3.33658724051373        0.50144376374095        5.79482139202275
C           -0.96275635715245       -0.99074496449112        4.34597279975654
C           -0.24485179445746        0.15837288469728        4.57894180217566
C            0.96196940252592        0.09337497658812        5.25430163030144
C            1.44012242229741       -1.12676868882752        5.68928780354492
C            0.71795039541164       -2.27853379750002        5.44683534321405
C           -0.48626920756522       -2.20862101094134        4.77194107773574
C           -1.37941838308823       -2.82873207002457        0.49161593688525
C           -0.27901450926888       -2.55832354157478        1.30404261611939
C            0.40101503755994       -1.23713369333190        1.26292106222248
C            0.20933149279028       -3.56282070342846        2.11927223825640
C           -0.38249239646670       -4.81574635289044        2.16471838612041
C            0.14187295294668       -5.87679862281127        3.06757380904611
C           -1.44830324622324       -5.07433042363200        1.31793371706854
C           -1.95023456858512       -4.10389654677360        0.47066039512791
C           -3.05407837651458       -4.45809746033279       -0.46430417853628
C           -0.51944827367207       -1.75976491257253       -2.48805856949301
C           -0.75393973922324       -3.22596588443137       -2.56511141794250
C            0.28149103051651       -1.14491381646137       -3.43512623642141
H            1.08360201058445        1.88745150400482       -4.63492578173044
H            1.36886743618694        0.31669144067794       -5.37756691328683
H            2.42527056519757        0.88307802202530       -4.08221584642764
H            0.08390488778316        2.03786548176830       -2.39396814996023
H           -0.74035447129549        1.77774556525169        0.16606615662938
H           -2.13220944247476        0.70562276574653        0.25699178419305
H           -2.13219730051964        2.04150640874455       -0.88600576999091
H           -3.46677844645167       -0.10515578779630       -2.03544046505402
H           -7.90401402331056        0.50341360425226       -0.60800485044695
H           -9.33206265110312        1.92451489195652       -2.01398234650775
H           -8.41160388437148        2.95946446205086       -4.04624740683782
H           -6.06577618503587        2.57030979501517       -4.66673131061887
H           -4.64118699763597        1.15459386665412       -3.26809051659751
H           -6.02025768023784       -6.31508257577013        3.11008154128735
H           -6.41068083387212       -8.39327311608666        4.36114172751149
H           -5.13654524410160       -8.84658103305003        6.41549753694805
H           -3.47568584237351       -7.22043414116534        7.21378947796130
H           -3.08249621383193       -5.15037345818928        5.96765192215219
H           -2.98036988615313       -3.25328358362393        4.99251245220225
H           -5.06754281949183        0.18882847759587        2.92694766477312
H           -6.72606241095898        1.46425668928560        4.25745276845865
H           -6.19739413795934        2.10190108928688        6.57535573314765
H           -4.03136174323853        1.48049724635949        7.56188275858771
H           -2.38557715609088        0.21904506935361        6.21542315227680
H           -0.62891498951248        1.10313322607693        4.22393717084294
H            1.52637431247151        0.99284403892367        5.43790405186146
H            2.37969150100891       -1.18092435691636        6.21455837445542
H            1.09523177141239       -3.23218472851545        5.77811305380399
H           -1.02848198991337       -3.10891644557352        4.54362464232742
H           -0.32536425113023       -0.43077245505556        1.34275001523671
H            0.94960477153285       -1.11075513561651        0.32911652691817
H            1.10749595677269       -1.12636535447557        2.08622398304036
H            1.06459804468704       -3.36580269118243        2.74090916026547
H            0.66015598348585       -5.44489060296789        3.92457868401151
H            0.84393922043060       -6.52316790742617        2.53957199418962
H           -0.66789962957909       -6.49912529658623        3.45089623039106
H           -1.89402688000328       -6.05333610239530        1.31811252708998
H           -2.71446949927010       -5.17768626566981       -1.21008810301251
H           -3.43280575185762       -3.58214236474810       -0.98959228993080
H           -3.88921612030271       -4.90819694277999        0.07248616371217
H           -1.81664389994093       -3.43929093308929       -2.67787227670009
H           -0.39158701170503       -3.72737880495015       -1.66772136023487
H           -0.23849368397303       -3.66787262690891       -3.41871823110493
H            0.74071954391999       -1.74098433254795       -4.20375282146126
