112
 energy: -20.509080486824 gnorm: 0.000428133453 xtb: 6.5.0 (97a52f5)
C            2.03788260910232        1.92978593006008        0.78478111325728
C            0.93740390670475        0.95713258433156        0.53597372472786
C           -0.22093877270305        0.98771906605400        1.29914438014977
C           -1.24248373653774        0.07496789778571        1.10468859147564
C           -2.47805689364501        0.16719536552851        1.93006976443552
C           -1.10099409801787       -0.89234091144660        0.10493116577556
B           -2.23796779773984       -1.93087336164988       -0.17058424551780
C           -3.72812766996325       -1.47711224014391       -0.24833901163819
C           -4.61119474029230       -2.24997073772858        0.51415918282488
C           -5.94758417246065       -1.97650788099426        0.56450432838162
C           -6.46005670890006       -0.86816238844586       -0.17505601509700
C           -7.84126862155843       -0.54826256414850       -0.14877436990408
C           -8.29068239452998        0.55415932405743       -0.84997768847808
B           -9.76922409222828        1.05048462113338       -0.87746104591922
C          -10.35273369710775        1.57413332632788       -2.23249430315984
C          -10.34150956991618        0.72198393819172       -3.34041165784761
C           -9.77873958833084       -0.65324677855077       -3.25438123352891
C          -10.84050807509640        1.18465764059440       -4.54462246333012
C          -11.35666864626279        2.46644760616911       -4.67218639295587
C          -11.92518989007355        2.93379116790170       -5.96728866766514
C          -11.36919379263816        3.29082929385280       -3.55603346001201
C          -10.86510588279901        2.86940719291197       -2.33797609720629
C          -10.88387139510010        3.78548468564560       -1.16554276503560
C          -10.58633609545181        1.20296076823904        0.44774567553900
C          -10.01770500766848        1.81438596777564        1.56941908713015
C           -8.62099298661946        2.32916964070825        1.55301598659441
C          -10.76420137991796        1.90311025564940        2.73093240483525
C          -12.06450346504745        1.42357444174228        2.79869127839024
C          -12.84503126172752        1.51328451724181        4.06422740101947
C          -12.60761995670069        0.81847617936222        1.67458683688335
C          -11.88731089864284        0.69524429243623        0.49958215743353
C          -12.49800555464668        0.02944177043165       -0.68301776474476
C           -7.40576434321333        1.33337951475663       -1.60392356172201
C           -6.07271654018030        1.04746085056581       -1.67092663934645
C           -5.56379904845408       -0.07388006723672       -0.94877862223261
C           -4.18565791240330       -0.40497451811023       -0.99000467041543
C           -3.24909558143732        0.38251159396835       -1.86379266839783
C           -3.69593324256966        1.84113032008682       -2.04636207993112
C           -5.16429992505580        1.91909920931955       -2.49432319702354
C           -8.80226069214509       -1.42731205872148        0.60257329465635
C           -8.15061923930596       -2.12235027355908        1.80797924936170
C           -6.85322429066435       -2.83899257422348        1.40043481036064
C           -1.92610539064846       -3.46526704128299       -0.17850330794297
C           -1.20878561049464       -4.05228576716850        0.86681224037439
C           -0.71709958618548       -3.23993639262097        2.01246639657820
C           -0.95301358950214       -5.41162093705184        0.82078756557641
C           -1.40083949866072       -6.20013661658820       -0.22958322906311
C           -1.14359197431927       -7.66727600272718       -0.24281901161844
C           -2.13123277273662       -5.59979652658825       -1.24515695415323
C           -2.39314771427284       -4.24160271860450       -1.24310665202856
C           -3.19336166165640       -3.64356341772984       -2.34653066056009
C            0.05580257327581       -0.93964989872531       -0.67785109070972
C            0.21780622584841       -1.96178514740465       -1.74702749966809
C            1.06297797556201       -0.02135071791692       -0.43959924198520
H            1.64563334497807        2.88980968539086        1.12411784835614
H            2.61632614521034        2.11139685534550       -0.12246070672206
H            2.72017200300979        1.55568239330466        1.54962622804074
H           -0.32629695038050        1.74003933405558        2.06096118891912
H           -2.27034738029411        0.61015353540195        2.90521511670481
H           -2.91389844879759       -0.81662640042407        2.10277302678443
H           -3.22905346190093        0.78452704180311        1.43504897266429
H           -4.21859883493399       -3.08215704663663        1.07049096934394
H           -9.79215493479171       -1.02271541181554       -2.22932305439439
H           -8.74490379762694       -0.67115530335044       -3.60234676319482
H          -10.35301107205471       -1.35228471785416       -3.86424747085884
H          -10.83127416931644        0.53436276327786       -5.40163104991350
H          -11.45560208806266        2.42565662062234       -6.81103929854121
H          -11.77216721270955        4.00599040878651       -6.10014750850035
H          -12.99782638958854        2.73891484610523       -6.01195767783894
H          -11.77886116025075        4.28180093880423       -3.64259982232200
H          -11.12415402201074        4.80764067228247       -1.46167686783903
H           -9.91189551674437        3.80610835912986       -0.67285127066218
H          -11.62850488688845        3.46721187493859       -0.43489200754156
H           -8.34049833818546        2.68375244164870        0.56145551760962
H           -7.91682199335898        1.54742846186572        1.84142355974970
H           -8.49943888684099        3.16276956473714        2.24630183100548
H          -10.32603796556951        2.35411106665770        3.60387733452843
H          -12.52103945046980        2.36215614921384        4.66841655665689
H          -12.72039927784755        0.60848110450063        4.66119677803624
H          -13.90985299170336        1.63911403947141        3.86168521272505
H          -13.60980092189477        0.43031113227568        1.72209991004762
H          -13.41413945426137       -0.49862906909181       -0.41463639630365
H          -11.81282394030902       -0.69979490503079       -1.11540406935350
H          -12.74803217489917        0.75900845595037       -1.45430425658631
H           -7.79430402086088        2.17828516780079       -2.14365499568562
H           -3.18500229772184       -0.10916516469238       -2.84182819178351
H           -2.23576989820040        0.34639950985534       -1.45156716270681
H           -3.04324798125336        2.35874107600196       -2.76391719502675
H           -3.57444751794729        2.37932919088531       -1.09771498068947
H           -5.24885561491674        1.61963171026558       -3.54599383227168
H           -5.52338318775270        2.95561396679795       -2.45218018515266
H           -9.20050673137441       -2.18111189052243       -0.08708009718250
H           -9.66810147831895       -0.84128897489750        0.92658851374237
H           -8.85345589954827       -2.82784027288581        2.27390454139749
H           -7.92828481980443       -1.37583646817004        2.58101829896724
H           -7.09209960868206       -3.74804984171078        0.83528756208156
H           -6.30723299407254       -3.17888065983180        2.29007506886644
H           -1.50618931997397       -2.59454499971768        2.39802333965259
H            0.12051589066182       -2.60946967976311        1.71155134467530
H           -0.37946310553947       -3.87288266589477        2.83438688479075
H           -0.39872504643393       -5.87091530333688        1.62025122285432
H           -0.20895979552548       -7.90804124409405        0.26627047123003
H           -1.07083057294340       -8.04537794398509       -1.26380782693606
H           -1.94866229226147       -8.20641881778462        0.25893051231567
H           -2.50219507718202       -6.20494735518265       -2.05363575946863
H           -2.96687355778597       -4.12116715923299       -3.30096037301616
H           -2.98612850279114       -2.57911246674589       -2.45371946284033
H           -4.26147968064428       -3.75860408629797       -2.15639273125525
H           -0.70486624704379       -2.07998841771946       -2.31519686694019
H            0.48048742604414       -2.93119817882247       -1.32151484751800
H            1.00275730251776       -1.68084685820977       -2.45070766878357
H            1.96290102358412       -0.06247848683037       -1.02763778084155
