76
 energy: -15.160457838127 gnorm: 0.000611089174 xtb: 6.5.0 (97a52f5)
C            1.77306727422635        2.03794747763753       -1.27418860010018
C            0.71665765690411        1.05960168371926       -0.89280845952908
C            0.00835991138054        1.20706819373627        0.29076511026077
C           -0.95331705212289        0.29195240289341        0.67846117160747
C           -1.68383075844041        0.49582238076334        1.95957645477724
C           -1.21969133451119       -0.80014044190114       -0.15229603375932
B           -2.30416144474070       -1.84440312735390        0.27476375296500
C           -3.74468509143496       -1.36664270528945        0.59206891113308
C           -4.51388076400054       -2.04051855036036        1.52819736576239
C           -5.79210172162928       -1.62088491090730        1.80431143863513
C           -6.34138572710465       -0.51295947328731        1.15053763048091
C           -7.71730907423768       -0.06014479383954        1.44646038349255
C           -8.71756290443910       -0.98114499592950        1.76069517960670
C          -10.02200175873228       -0.57887830143193        2.04539186264281
C          -11.05669473118465       -1.51183562770146        2.36963081536002
C          -12.31625540160430       -1.09679375626418        2.64164874645876
C          -12.66217409516650        0.29040039164645        2.61469413793894
C          -13.95412626932452        0.74657098709374        2.89078725394755
C          -14.25007954510297        2.09440155174142        2.85461000483168
C          -13.27742426440303        3.02374692205563        2.54529990310031
C          -11.96935132909567        2.62190988756528        2.26091694402313
C          -10.93427968138165        3.55361650643112        1.93655713708471
C           -9.67490634274638        3.13780956962441        1.66504339540776
C           -9.33031573838957        1.74991184288390        1.69142951941992
C           -8.04050470940397        1.29702762213828        1.41684483861773
C          -10.33449628759287        0.80260814727709        2.01028346890924
C          -11.65871242679982        1.23938413521981        2.29602543685816
C           -5.55149363365380        0.15496709317016        0.20894392894557
C           -4.27306722569330       -0.26580325309848       -0.06435594669826
C           -1.95684812460392       -3.36680207849826        0.37440235123037
C           -0.89043566116122       -3.78762070252349        1.17155813561389
C           -0.08284265179304       -2.80791925751015        1.94726928167686
C           -0.59256381970869       -5.13772518175998        1.23099419112635
C           -1.33729784941925       -6.07715155280216        0.53252119223485
C           -0.99243000287803       -7.52492830827673        0.59249332686791
C           -2.39073108464826       -5.63579225736581       -0.25442144559906
C           -2.71153895444902       -4.29400804447660       -0.34984762942346
C           -3.85780850991133       -3.87447474643777       -1.20244286105667
C           -0.51549124462957       -0.97162456418724       -1.34592684325672
C           -0.78018422686408       -2.13849776022307       -2.23007452126442
C            0.44903590689751       -0.04187915790248       -1.69257619631370
H            1.54127098357610        3.03507053373840       -0.89693793012388
H            1.87123285304649        2.10916088523108       -2.35842412506613
H            2.74086081749445        1.74101218534581       -0.86756419892671
H            0.21624799043954        2.05017561016683        0.92581789315714
H           -0.99860284642440        0.77936580607739        2.75944610026512
H           -2.19874509330282       -0.41140272574916        2.27410608377596
H           -2.42925289005579        1.28541091534567        1.85851655566861
H           -4.09324526009871       -2.89240152506931        2.03372203639728
H           -6.37695761607222       -2.13795704726165        2.54505475620200
H           -8.48443473615920       -2.03019080933725        1.76886989679174
H          -10.81412323177614       -2.56026644031894        2.39452045718106
H          -13.08256949430503       -1.81280971688909        2.88402291519657
H          -14.72052223305234        0.03058432322110        3.13336492267389
H          -15.25287272944835        2.42554793761349        3.07074272867096
H          -13.51907576091257        4.07251411756285        2.52044054832721
H          -11.17591567438178        4.60223319304374        1.91185974006381
H           -8.90776544381003        3.85296882289748        1.42287965113560
H           -7.27417420305398        2.01660853199615        1.19329916885551
H           -5.96221630606475        0.99855573691488       -0.31812855983398
H           -3.67004255156702        0.24870674228083       -0.79223894269101
H           -0.72319588103835       -2.19500618043415        2.58169890639185
H            0.47095845936744       -2.14584450487282        1.28094555967184
H            0.63975867582413       -3.30809963137280        2.59346075984928
H            0.23381381534264       -5.46905892496513        1.83461976076238
H           -0.43892213285632       -7.76264959184175        1.50194685717479
H           -0.37650013048141       -7.81194873097241       -0.26089021689828
H           -1.89146284680107       -8.14281028122312        0.58152451493698
H           -2.96912585486861       -6.35487471693421       -0.80739322947952
H           -3.85658029239610       -4.41177712822871       -2.15204214494882
H           -3.81981498223532       -2.80875704035240       -1.42700763825891
H           -4.80597463594855       -4.07665941823337       -0.70230477164421
H           -1.84620594000629       -2.23618469828743       -2.43390257215747
H           -0.43580409648838       -3.06375860526680       -1.76668506444250
H           -0.27023828198923       -2.03697447557223       -3.18899717722508
H            1.00470824414325       -0.17349639450466       -2.60418797546517
