76
 energy: -15.159246137165 gnorm: 0.000538532701 xtb: 6.5.0 (97a52f5)
C            1.15434051180520        2.46037950803021       -0.42594565442068
C            0.11483788203976        1.39771877147393       -0.33155512199760
C           -0.76182653456019        1.36008625728985        0.74267622262510
C           -1.71194281585186        0.36292774709848        0.86782071192298
C           -2.63486483622613        0.37266396865877        2.03614397698757
C           -1.79158186591982       -0.62159421078211       -0.12115444799121
B           -2.85762038040235       -1.76027765511563        0.00941751722521
C           -4.35028587172769       -1.39529999766536        0.19876004085135
C           -5.17833515032328       -2.22252690903430        0.94436585921629
C           -6.49996406802142       -1.90072255624049        1.12069349182521
C           -7.04079171755905       -0.74171756769021        0.54660311806022
C           -8.46317048793779       -0.39250436597098        0.75398795804026
C           -8.98958097838084       -0.40922488923471        2.05192777068587
C          -10.29046018467521       -0.06183566190470        2.31315033422707
C          -11.15375428575004        0.31994001886486        1.27826939812248
C          -12.50731920968321        0.69389305046071        1.52230384283897
C          -13.33206379962665        1.05219113671713        0.50837224305248
C          -12.87634323740487        1.06347362481804       -0.84381098156661
C          -13.70820407344799        1.42401748783383       -1.90871810337753
C          -13.23819025097524        1.41688082681839       -3.20616679082646
C          -11.93707669583695        1.05123210388437       -3.48240272510342
C          -11.06344810405776        0.68324611320919       -2.45345470206852
C           -9.71693293366843        0.28672393236562       -2.70089856031928
C           -8.88978307651862       -0.05923403308448       -1.68440893209865
C           -9.31871523935563       -0.03512846066281       -0.32472824717464
C          -10.66314126979062        0.32687174462760       -0.05105319441016
C          -11.53528013251866        0.69348959675929       -1.11783438517963
C           -6.18633959203505        0.08787908470822       -0.19361504394839
C           -4.86486043915549       -0.23672936283240       -0.36579508442176
C           -2.43358508394079       -3.26599794950520       -0.03447556373578
C           -1.46160906530083       -3.74627436295688        0.84527631150176
C           -0.82784277462880       -2.84844497147176        1.84840243257312
C           -1.09421143078916       -5.07847977510894        0.77214044419640
C           -1.67417730221731       -5.94222921290432       -0.14624226719933
C           -1.27509984603521       -7.37579739099141       -0.21532886341474
C           -2.64298184216806       -5.44438209057058       -1.00456330862108
C           -3.02927016771300       -4.11692636256692       -0.96954193994620
C           -4.08310765631624       -3.63372442321616       -1.90368424401257
C           -0.91736027310752       -0.60550494513325       -1.20998477098062
C           -0.98921592542683       -1.65204318724094       -2.26519919730014
C            0.02848655517185        0.40125133327555       -1.29286556678124
H            0.79314511613917        3.40184594005988       -0.00942051232911
H            1.43771369982652        2.64473603742016       -1.46325987413783
H            2.05274661371575        2.17256599185994        0.12202267918049
H           -0.69804277954114        2.12242269262575        1.49904889513436
H           -2.10723215825981        0.64839001235357        2.95031153360147
H           -3.08329155635331       -0.60730779633666        2.19777193457843
H           -3.44314110707987        1.08940349267643        1.88459940260133
H           -4.76741432780284       -3.11648462189972        1.38057910164709
H           -7.14245479558687       -2.54704412453643        1.69359135924168
H           -8.33854628094156       -0.68283707094792        2.86459661415041
H          -10.66158762278900       -0.07434307717084        3.32364700550395
H          -12.86820674844117        0.68734232648413        2.53645961978036
H          -14.35152181919557        1.33201193868186        0.71100898341186
H          -14.72618789109122        1.70765909668416       -1.70349808134478
H          -13.89570662027989        1.69779597437354       -4.01283810816443
H          -11.58060320779244        1.04418810022800       -4.49814381143427
H           -9.36637061117100        0.25984837612496       -3.71832289258538
H           -7.88739822520121       -0.38048946347615       -1.90365114410434
H           -6.57600943705577        1.00151709446444       -0.60870204287625
H           -4.21077888437056        0.40236471079066       -0.93327179220418
H           -1.58378655772037       -2.35934971960135        2.46300874413928
H           -0.23439162886154       -2.07517225011331        1.35940457040677
H           -0.16568846057466       -3.40092821587554        2.51654871368480
H           -0.34370216099922       -5.45482358088351        1.44453712125202
H           -0.49285864126170       -7.60766570907523        0.50882926595621
H           -0.89530690296311       -7.62572031690805       -1.20710012202635
H           -2.12591659398748       -8.02616448084041       -0.00702977458762
H           -3.10363228717359       -6.10756762562413       -1.71549321670483
H           -3.95706161269130       -4.06917228509386       -2.89556163083957
H           -4.05263897171201       -2.55006204586396       -2.01336772275458
H           -5.07518109741882       -3.90406011078746       -1.54061736772218
H           -2.00223973277815       -1.73776457568982       -2.65791560700853
H           -0.69402306475402       -2.62446636944978       -1.86965178180965
H           -0.32949467360536       -1.42058891557104       -3.10249864849066
H            0.71286467976535        0.41437460595865       -2.12267539018761
