77
 energy: -15.462213762493 gnorm: 0.000231064830 xtb: 6.5.0 (97a52f5)
C            2.33301375849160        1.63241222152250       -0.63638228033416
C            1.15901633594387        0.73216227004209       -0.46426414497319
C            0.07853267688947        1.11938356489119        0.31424242131104
C           -1.00548450004152        0.28443401198528        0.51519544819361
C           -2.14565042862518        0.74897795225047        1.35216938280434
C           -1.01017644405640       -0.97336938027044       -0.09329981698705
B           -2.23366701557893       -1.92298710197197        0.13478527285099
C           -3.66019464522170       -1.41678492651712       -0.17646244548181
C           -4.72310829158480       -1.77120378073499        0.64623096379453
C           -5.98591230645961       -1.31089205644347        0.37948917381607
C           -6.22703041298388       -0.49131233492840       -0.73091964653432
C           -7.55465567251247       -0.00031181859474       -1.03505915751267
N           -7.87405422416312        0.63673270781390       -2.17823456792558
C           -9.18733188401261        0.93558904138324       -2.07620105904276
C          -10.04646625369007        1.60428602850980       -3.01894383937395
C           -9.55772461382147        2.03038887619344       -4.25689553957418
C          -10.38213734739607        2.65469278504606       -5.15459363199370
C          -11.71567280991127        2.86867546128395       -4.83494765999358
C          -12.21598084284916        2.45954268953396       -3.62338211450446
C          -11.40461988159196        1.81691011441406       -2.67796396560535
C          -11.91785496454469        1.36968176843484       -1.37723833328669
C          -13.24715961246934        1.57765715970196       -0.98433706732275
C          -13.70546807651181        1.15447879005245        0.23882556526809
C          -12.85532914303737        0.50423877243022        1.12267497823376
C          -11.54965324164291        0.28127463020143        0.77543972977157
C          -11.06067857817760        0.70451040281366       -0.46533048648271
C           -9.69347220015375        0.48933614965549       -0.84208715065715
N           -8.64748688898000       -0.11278910656676       -0.19287605973733
C           -5.14833942496115       -0.15252927562341       -1.55706296517300
C           -3.88427894385129       -0.60148638172520       -1.27949106328144
C           -2.03485569110601       -3.37676667547130        0.67950752307479
C           -1.34638953242675       -3.59492053332202        1.87381154102237
C           -0.80735002306727       -2.45541334949091        2.66447368591925
C           -1.17498551966991       -4.89468131120059        2.31720857231725
C           -1.68121700999162       -5.97593513290625        1.61088046663263
C           -1.46434959659723       -7.36806820290917        2.09385599224980
C           -2.35840035569375       -5.73465357301263        0.42468573683731
C           -2.54127685535717       -4.45107909992461       -0.05633463900625
C           -3.28822470503314       -4.24191099121827       -1.32706239861362
C            0.06778468747746       -1.38644841287961       -0.87805027230388
C            0.07465082565519       -2.72641315447743       -1.52492621527236
C            1.14042200373382       -0.52781274221221       -1.04417683680740
H            2.03481898951149        2.68086132845581       -0.59354894135065
H            2.81942700491852        1.46607363410460       -1.59849191026188
H            3.07090586435122        1.46020934691659        0.14833988731739
H            0.08600078547057        2.09062560869028        0.77663925993615
H           -1.79565383513601        1.33976707192389        2.19971640592453
H           -2.71446734258872       -0.09114947444055        1.74966931138512
H           -2.82736679596383        1.36835235070215        0.76805065322968
H           -4.53625230042009       -2.40499893238718        1.49569911590874
H           -6.80510800310907       -1.58733686458427        1.01865914870983
H           -8.52259686320785        1.85614998035918       -4.49341172246211
H           -9.99766653374596        2.97807461474541       -6.10822709861400
H          -12.36179356629922        3.35935509746793       -5.54474310743544
H          -13.25300317502154        2.63655333432377       -3.40406332632776
H          -13.92696414593387        2.08102148815239       -1.64720943323369
H          -14.73222832518766        1.32859672739934        0.51724626963980
H          -13.22345594760740        0.17712470823277        2.08150105584854
H          -10.88467682664750       -0.21999819931787        1.45651199987689
H           -8.67397291646817       -0.51237246217309        0.74433874685161
H           -5.32851999259204        0.47377877366257       -2.41297241164854
H           -3.05383392106017       -0.33523296284091       -1.91007106464509
H           -1.60042318638976       -1.75356922436639        2.92242317075548
H           -0.04480808797425       -1.91648460321633        2.10157118382197
H           -0.35211660843208       -2.79573699415053        3.59539712689226
H           -0.63851802555951       -5.07334379184995        3.23220673795717
H           -1.45105064072192       -7.40872090510607        3.18385594382842
H           -0.51342956184957       -7.75994753099326        1.73047185736193
H           -2.25652179294545       -8.03340674422039        1.74778645093057
H           -2.74783864824249       -6.56576192086338       -0.13634029882166
H           -3.02833776206801       -5.00253668074052       -2.06450549452371
H           -3.06433775801536       -3.26947938440425       -1.76468903055623
H           -4.36428962485314       -4.29139311298789       -1.15590183982592
H           -0.82479970878048       -2.87278029931031       -2.12264420230867
H            0.12029043702238       -3.51930696828219       -0.77777469949409
H            0.93311644851329       -2.84523801957432       -2.18719749855031
H            1.98015001657031       -0.84210504508297       -1.63834534240143
