72
 energy: -14.222839367612 gnorm: 0.000611168815 xtb: 6.5.0 (97a52f5)
C            2.08230848556092        2.12201829573392        0.96664186308773
C            1.07248855593656        1.06412926460056        0.68420277811960
C           -0.18459685613288        1.10678906737269        1.26902591770229
C           -1.12493723182977        0.11982907809278        1.03654273154241
C           -2.46428710413586        0.21678012009549        1.67958220598508
C           -0.79555467564556       -0.93972021882116        0.18732750167933
B           -1.86354009104459       -2.05273291129439       -0.08722871708567
C           -3.22991238412116       -1.66482022115003       -0.68056128769780
C           -4.34510905751166       -2.46951714385208       -0.47032264404539
C           -5.55547208134250       -2.12786327617058       -1.00999388901574
C           -5.69689059331509       -0.96415080059137       -1.77953468887781
N           -6.95117888450498       -0.61306458702619       -2.34948984054309
C           -7.48956339773248        0.69718238480692       -2.45949189289419
C           -7.00727416021447        1.92628539818806       -2.01488972503785
C           -7.76563609808993        3.05657079941987       -2.22480079684492
C           -9.00224574762650        2.98327388369516       -2.86214413771525
C           -9.50383876795639        1.77304185298125       -3.29193643855545
C           -8.74638830260411        0.62527236300768       -3.08489157953330
C           -9.00124703932664       -0.77137386566215       -3.38322639922484
C          -10.06592690189913       -1.40816870432918       -4.01166345328674
C          -10.01138189946544       -2.77520485514280       -4.18268461779737
C           -8.90879281133906       -3.50536757773541       -3.74456776580485
C           -7.84867822705334       -2.88490344296009       -3.12180893288905
C           -7.89505594308031       -1.50669987073787       -2.92346382739727
C           -4.56550056925361       -0.15990328914913       -1.97813176128658
C           -3.35581480441806       -0.50593577034317       -1.43995346398924
C           -1.55583477621152       -3.55609610793159        0.22949837327707
C           -1.20189630996036       -3.94605307466774        1.52214050505336
C           -1.12166207744976       -2.95327707943558        2.62751672421648
C           -0.94658940527064       -5.28351153035184        1.77033534824134
C           -1.02850228219158       -6.23733520681447        0.76625841685224
C           -0.77656686066330       -7.67690425430199        1.05396408958045
C           -1.38770235378122       -5.82740218166151       -0.50880205455703
C           -1.64672773568022       -4.49988906130112       -0.79706772408584
C           -2.03653788479598       -4.11468083135748       -2.18148377607100
C            0.46605438289996       -1.00841144018607       -0.40550046416940
C            0.82401529642318       -2.12982052078061       -1.31541082608271
C            1.38295017987516       -0.00558388070975       -0.14246081303686
H            1.60286864929360        3.06137050928918        1.24578338508587
H            2.70353037653669        2.31560095692679        0.09088978859936
H            2.73843411458111        1.82284730131338        1.78521284488880
H           -0.43395777063404        1.92549960929362        1.92079797754191
H           -2.37431158009481        0.48939948962260        2.73203210036910
H           -2.99988803928928       -0.73082329347813        1.62890116039187
H           -3.07684051801224        0.97242420023306        1.18617200886909
H           -4.24120857885121       -3.36010092890591        0.12485209295350
H           -6.42337128758546       -2.73342639755264       -0.81806829790026
H           -6.06762830869912        1.97985806247248       -1.49577190416823
H           -7.39988751897151        4.01232459556382       -1.88630165279857
H           -9.57695130473251        3.88234892791968       -3.01388434106329
H          -10.46307255464420        1.70390134112122       -3.77419303975180
H          -10.90710096349600       -0.83379107581488       -4.35823801389979
H          -10.82785568302399       -3.28419947931621       -4.66844281189454
H           -8.88323863785689       -4.57156946155257       -3.90066134503741
H           -6.98502618487744       -3.44486835420240       -2.81215248781304
H           -4.65124685490034        0.71644909669234       -2.59562603527752
H           -2.48700357934147        0.10783576735079       -1.60271291296409
H           -2.09733185181342       -2.50587367366958        2.81772738261898
H           -0.41992162543621       -2.15489416371879        2.38578212831938
H           -0.78431321022731       -3.41663712791282        3.55560263301034
H           -0.68361473008264       -5.59305431537718        2.76631208181888
H           -0.22041391440951       -7.80438354536727        1.98385705571826
H           -0.19580167368081       -8.13966764611077        0.25462711370825
H           -1.71623356866369       -8.22329583068718        1.14742177546567
H           -1.46893960060332       -6.56037066446833       -1.29207235988405
H           -1.38188325606076       -4.58460152365247       -2.91673561224970
H           -1.97687664526789       -3.03656531636150       -2.32788402686984
H           -3.06046569335596       -4.42378749736083       -2.39552014340602
H            0.14929289455215       -2.16477509282865       -2.17090620985002
H            0.76680992534707       -3.08678471785814       -0.79583084962676
H            1.83925476923587       -2.02315266393928       -1.69988465399196
H            2.35947081998198       -0.05263789118869       -0.59110976868524
