42
 energy: -7.238991698286 gnorm: 0.000955027294 xtb: 6.5.0 (97a52f5)
C            1.15830043135352       -0.34704562287748        0.38683758989650
C            2.35869187589603        0.22087052240225       -0.29548607297700
O            2.78694974729079       -0.30331650874315       -1.29822822419463
C            3.02495171983700        1.41550434856296        0.25082034204984
C            2.58184770535422        2.06224550978725        1.43553800702415
C            3.23392264539989        3.14225591453084        1.92134853102055
N            4.34121081075541        3.62746575566341        1.25494311858551
C            5.20626346179750        4.67666142309565        1.53348922199826
C            6.18193960105501        4.74514976236494        0.55481134224752
C            5.93962382746986        3.73347176418515       -0.39308786724013
C            6.70158689078163        3.48881603595803       -1.61445640265543
C            6.09503199770659        2.97443915192348       -2.76450983361503
C            6.82629351584712        2.76097284627900       -3.89722636993439
N            8.15388430680507        3.05255697082952       -3.92518766499856
C            8.93924643342946        2.80914410387850       -5.13979078168788
C            8.77103653605415        3.55905592538613       -2.82554100889213
C            8.06641141133535        3.78451656395772       -1.67851924079079
C            4.78806043557778        3.03397507137516        0.07944131035860
C            4.12277814953843        1.90311565638563       -0.41085068165953
C            7.08762770120547        5.90964603899409        0.85120320146905
N            6.49367602619187        6.44985086627884        2.09990938769535
C            6.96090194070402        7.61932794863171        2.82404847796901
C            5.37512954396274        5.74043316704324        2.52578463534854
O            4.67956315886805        5.95544738284593        3.50091334486621
H            0.77946843325659       -1.19405654756513       -0.18453393102757
H            0.35918675983425        0.39042284622144        0.46017046379480
H            1.40641117337279       -0.70288171447844        1.38664588687705
H            1.72173571895027        1.68050786192777        1.95712433400575
H            2.92298784334310        3.64448900497317        2.82138538748975
H            5.03560290034783        2.79085433694760       -2.76829545189779
H            6.36332111206027        2.36547580099834       -4.78501416673248
H            8.28667067603212        2.58624865859671       -5.98091817447002
H            9.60823091342402        1.96596856829783       -4.98068184490337
H            9.52752049238749        3.69140590510874       -5.38344515690143
H            9.82500019498862        3.77231588156752       -2.87906767596989
H            8.56422572945348        4.16956412203038       -0.80655173293829
H            4.47976217750514        1.38389716300593       -1.28083957142923
H            7.05955966227292        6.66137444730739        0.05827096099558
H            8.11797766092496        5.59483468155640        1.03272812075191
H            7.89315859955932        7.98167172224957        2.39616472690002
H            7.12151783035884        7.35634742956101        3.86755627829605
H            6.20870224771445        8.40339923295367        2.76830718527923
