130
 energy: -25.902285297670 gnorm: 0.000635639707 xtb: 6.5.0 (97a52f5)
C            2.35174905910018        1.60899855463337       -0.71204946902755
C            1.14021613700342        0.77146954235680       -0.48998758681353
C            0.28133676723052        1.03497401061913        0.56695664191318
C           -0.83406584475421        0.25323456126217        0.80610549682566
C           -1.73207484583632        0.58677267496788        1.94582616058886
C           -1.10105912912163       -0.82120575147515       -0.04738951517452
B           -2.37126458999145       -1.69975824720528        0.20342319338629
C           -3.76299043827212       -1.01924910056174        0.28983147583516
C           -4.01374270681977        0.13088172130484       -0.44186529176317
C           -5.23864308264220        0.74905272812407       -0.35940932254795
C           -6.24483105981195        0.23077539239779        0.45658973045130
C           -7.49526513979100        0.87113691119686        0.54556118053541
C           -8.56944186417465        1.44982583325471        0.62558368514670
C           -9.79071331308357        2.14791007167481        0.72284703979189
C           -9.79738018481998        3.53775167081604        0.79068717571067
C          -10.98930263102000        4.25845563490833        0.88853485720434
C          -11.01601398845268        5.68515894319699        0.96000607357400
C          -12.18588472570579        6.36141264578939        1.05386798561819
C          -13.43795584028292        5.67394830032262        1.08492388965079
C          -14.65739720947261        6.34725094026418        1.18055706882044
C          -15.86744190100359        5.66084400074999        1.20965741445566
C          -17.08093743516178        6.37206541151613        1.30846667590342
C          -18.11705701134188        7.01485996366903        1.40011580138823
C          -19.29393842983446        7.77870328498146        1.51354764586651
C          -20.48111100633072        7.36084842122576        0.91108890186646
C          -21.62735086637785        8.11139553952330        1.02510545989501
C          -21.61555440043206        9.29712286197170        1.74298164660424
B          -22.90928107095993       10.14255016017008        1.87842248965327
C          -24.29946483614437        9.42560129981880        1.89459142566395
C          -24.54192823011880        8.41746837572270        2.83204538258539
C          -23.50329732984427        7.99471822619459        3.81139675013901
C          -25.77358724925043        7.78862322466435        2.83271804931580
C          -26.77215303713065        8.14638984551310        1.93806796239036
C          -28.09501154769502        7.46160718876701        1.94600743755740
C          -26.51029774033940        9.15181783852577        1.01929584763836
C          -25.28689803789822        9.79731154507522        0.97999284586339
C          -25.03467208469518       10.86410347085298       -0.02613994134485
C          -22.80325192448440       11.69787479097113        2.01045796693212
C          -22.12308750713178       12.42286365371018        1.02779225102105
C          -21.48522417588960       11.75076262890685       -0.13747058801074
C          -22.03035544593159       13.79670716743094        1.15579014130003
C          -22.60042932094718       14.46662851316268        2.22840586886544
C          -22.51525880063146       15.95020065509024        2.32962723803362
C          -23.28435819673900       13.72845982331958        3.18348847693135
C          -23.38985692617402       12.35137482366829        3.09612906420604
C          -24.11701477465297       11.58831410879475        4.14630760036407
C          -20.44273480340025        9.72374255633310        2.34576934282882
C          -19.29598573411890        8.97430887923740        2.23293594887571
C          -15.86264966973653        4.27081454436092        1.14243757168599
C          -14.67062910682287        3.54909837774890        1.04583707924319
C          -14.64302889278673        2.12217915265866        0.97553659100204
C          -13.47289537422273        1.44582211637324        0.88187215165328
C          -12.22029405973707        2.13266390499150        0.84965011401214
C          -11.00002303524531        1.45990883445445        0.75285428027750
C          -12.21540506694034        3.54830047895065        0.91811810903762
C          -13.44390209947383        4.25842552431209        1.01648523929598
C           -5.98078731255656       -0.92962188199804        1.18513361213443
C           -4.75487147041035       -1.54652184460537        1.10198072583040
C           -2.26124886833406       -3.25051669268828        0.37619022669831
C           -1.41478827650456       -3.78957635851841        1.34713794406496
C           -0.60714637659206       -2.90764860043158        2.23257158482469
C           -1.34033077046632       -5.16523409995859        1.47873984444028
C           -2.09415499770967       -6.01329472809337        0.68020300767145
C           -1.98736853136666       -7.49202990420669        0.82309671127774
C           -2.92286659063267       -5.45537324799415       -0.28207876749127
C           -3.01623749033800       -4.08610238567343       -0.45170116356000
C           -3.92668350059708       -3.53631472961044       -1.49343781322570
C           -0.24583308504842       -1.11060817479134       -1.11261850214633
C           -0.52088941128226       -2.25325383651616       -2.02522493187925
C            0.86662039329423       -0.31191876597554       -1.31237175733107
H            2.18892479933312        2.63401223301526       -0.37567101290381
H            2.61616271686514        1.64649284277812       -1.76982909811487
H            3.20611990449372        1.20731677047373       -0.16541135773727
H            0.48870803524582        1.86657400975610        1.21715528579560
H           -1.15660230389950        0.86929904459750        2.82841192905131
H           -2.35961942904513       -0.26108204031782        2.21936610760150
H           -2.38801755255192        1.42006916233586        1.69056066814608
H           -3.23727159843241        0.53181182093098       -1.06999619100561
H           -5.43427196002834        1.64486390485910       -0.92391268644698
H           -8.86174752700170        4.06722544321307        0.76725216711895
H          -10.08152244089966        6.21890228665601        0.93808284758717
H          -12.18800068945150        7.43648254652965        1.10715343945002
H          -14.66381767525686        7.42122082434681        1.23348294322464
H          -20.48770779102868        6.43921665739598        0.35440746807858
H          -22.54364381913797        7.78956681188209        0.56140230372974
H          -22.70890574041317        8.73586278033292        3.89545079033361
H          -23.04816356115356        7.05040724446303        3.50966322166975
H          -23.93416505173158        7.85924008072834        4.80442504666620
H          -25.96118362468344        7.00518359953794        3.54561008600198
H          -28.18087263711918        6.76997848906705        2.78531150456544
H          -28.24247144811493        6.89206719997433        1.02720182085587
H          -28.90705765539873        8.18567523083325        2.02746031221202
H          -27.27784398395853        9.43134971191504        0.31936233492417
H          -25.87704894302049       10.97491832657498       -0.71022376697851
H          -24.15309035621021       10.63221671769332       -0.62375917703181
H          -24.87395009981236       11.82720240069248        0.45927242939391
H          -21.86582891264961       10.73849784921544       -0.27125852956271
H          -20.40463082523677       11.68624012004732       -0.00316358730153
H          -21.67806640740368       12.30039154805653       -1.05987372965054
H          -21.50640093757013       14.35969879375430        0.40359062627365
H          -21.58382908751291       16.32128394133529        1.89926838063806
H          -22.55201731678504       16.27708748962597        3.36993756105480
H          -23.34310724490800       16.42265727483640        1.79877754579336
H          -23.74064367492525       14.24061038853099        4.01209851096053
H          -24.43524275526759       12.23746743839451        4.96312451206853
H          -23.48097174298337       10.81182668947849        4.57123711546548
H          -25.00808434578895       11.11264767488430        3.73540759014813
H          -20.44483713477153       10.64517664883193        2.90174051165299
H          -18.38342883057684        9.30350261221973        2.70015247377605
H          -16.79873976599990        3.74226319387264        1.16580549512501
H          -15.57735227106281        1.58817559447815        0.99851132673640
H          -13.47113106156378        0.37069857997810        0.82967059755275
H          -10.99273048571356        0.38599897302816        0.70002210004366
H           -6.75218138399612       -1.33618871540322        1.81685153550433
H           -4.54975287646556       -2.44045813413011        1.66500599359853
H           -1.24809057163184       -2.21358756979845        2.77626525609789
H            0.11099324655604       -2.32658244915949        1.65328587060950
H           -0.04698950537865       -3.48589992173771        2.96855338080894
H           -0.68459763515975       -5.58924414607000        2.21850129261925
H           -1.66435171121380       -7.76966415961168        1.82774182891406
H           -1.26550357401661       -7.89848811991287        0.11294797195754
H           -2.94875195040794       -7.97463582123954        0.63950407338158
H           -3.50457370562859       -6.10382978192897       -0.91331944528734
H           -3.84728880751900       -4.10423356197132       -2.42149245804040
H           -3.68982191388851       -2.49735886817084       -1.72165517567144
H           -4.96477440754749       -3.57716239281870       -1.16091444474888
H           -1.51145415913313       -2.16341438211507       -2.47113476768787
H           -0.47368147191122       -3.20092052795346       -1.48792068411036
H            0.20483780858323       -2.29812012097042       -2.83832919948180
H            1.53496390075475       -0.53195321828313       -2.12600637936444
