74
 energy: -14.399813457895 gnorm: 0.000528848485 xtb: 6.5.0 (97a52f5)
C            2.11924923683818        1.88261104528098       -0.26254126181229
C            0.99093501352797        0.91215093215969       -0.19970065877898
C           -0.00308083740622        1.04376907717706        0.75862904868804
C           -1.04052579946946        0.13437856111150        0.85534329474263
C           -2.08871121764633        0.32555641984775        1.89538192805201
C           -1.08620870351181       -0.93492739300341       -0.04282958068767
B           -2.26053465156763       -1.96693537679103        0.06262914816036
C           -3.71440701822912       -1.47274044578215       -0.01500692098076
C           -4.72636426764233       -2.16553057565573        0.64375411779300
C           -6.01792785298328       -1.72053894798339        0.58609178110531
C           -6.35240858122484       -0.56436804094682       -0.13848603143637
N           -7.68703795705668       -0.10300256154297       -0.19785194083270
C           -8.63078274338763       -0.44185816064981        0.83264167700181
C           -9.95120866776579       -0.75590086702826        0.51152612718304
C          -10.85990012964499       -1.06932555094374        1.49683263310596
C          -10.47059617244747       -1.07276307140213        2.82288050726011
C           -9.16791650572647       -0.75753819249740        3.15980327535280
C           -8.25720610593436       -0.44314791627885        2.17671237515122
C           -8.13630216416710        0.71813973089544       -1.28924929690510
C           -9.00708805970490        1.78431836658554       -1.06458570722150
C           -9.45035459523264        2.56335607828151       -2.10931901253773
C           -9.03666818611711        2.29297125909300       -3.39994016431694
C           -8.17896147840725        1.23666746167692       -3.64169131616386
C           -7.73438029923302        0.45561550968582       -2.59909305157497
C           -5.31945856172977        0.12023683492505       -0.80009110769767
C           -4.02797762246056       -0.32416186824187       -0.73645677707807
C           -1.96853271081709       -3.49442786932388        0.25314505625258
C           -1.19178612902819       -3.93759139600859        1.32466322945273
C           -0.64638154789116       -2.97834681713567        2.32289717183736
C           -0.94313681163345       -5.29306212552185        1.45381555518910
C           -1.45068289646763       -6.21423210155483        0.54867890956188
C           -1.17841710630143       -7.67144619500221        0.69600447845615
C           -2.22454588934788       -5.75076765596857       -0.50430735913085
C           -2.48801355775694       -4.40347911438050       -0.67202366069088
C           -3.33415793529150       -3.95823097720751       -1.81337760122413
C           -0.09478576341510       -1.09055167084445       -1.01266669367621
C           -0.13588715354576       -2.22606270345464       -1.97333121460233
C            0.93364771194507       -0.16609896155010       -1.07057372340365
H            1.80311678560075        2.87551343726838        0.06069068857114
H            2.50555646794326        1.97309861516943       -1.27886016986247
H            2.93964750759149        1.56426217069197        0.38228619586822
H            0.03569628207624        1.87088584566905        1.44545622611163
H           -1.64650866551164        0.62039732900359        2.84809001706393
H           -2.65389698770351       -0.59069524056821        2.06436787683589
H           -2.79383909315250        1.10218057556418        1.59598136383660
H           -4.47429594133188       -3.05189324400196        1.19961925167671
H           -6.80007092144579       -2.26813906949429        1.08150530626623
H          -10.24757407011991       -0.75600318170510       -0.52295134392913
H          -11.87648817254691       -1.31276188451093        1.23360776873633
H          -11.18301780256919       -1.31909613466879        3.59342485130001
H           -8.86481660526387       -0.75561358578174        4.19430313117234
H           -7.24601898869291       -0.18155216748387        2.43607322920102
H           -9.32257469915013        1.99311818411980       -0.05715837536987
H          -10.12154356446682        3.38543667653694       -1.92036060124100
H           -9.38437723948816        2.90378921004108       -4.21724406645293
H           -7.85969708008922        1.02237201003092       -4.64877633618955
H           -7.07918134134823       -0.37753831364288       -2.78542871518441
H           -5.55433733464939        1.01956278676099       -1.34143980502266
H           -3.23857141412750        0.20826110383184       -1.23799641024696
H           -1.45008707269566       -2.41832995988878        2.80087882598909
H            0.03204569777978       -2.26723306152371        1.85095513046064
H           -0.09033864033094       -3.49297143518945        3.10760438880504
H           -0.34441937778229       -5.64184287153380        2.27653334004124
H           -0.54464400918730       -7.87375001334883        1.56057961952334
H           -0.67128414186315       -8.06277147613634       -0.18723128522155
H           -2.10726793557976       -8.22890078046779        0.82552162319578
H           -2.62790051723806       -6.45738005757081       -1.20820426745962
H           -3.07545426497256       -4.49626864025453       -2.72636183888997
H           -3.20921075686811       -2.89396709866880       -2.01110379391512
H           -4.38982231611433       -4.13689024431540       -1.60505212286064
H           -1.07604297268120       -2.23306897342752       -2.52496414527821
H           -0.03780758363915       -3.17973663605935       -1.45350187851903
H            0.67333742453426       -2.16137786783881       -2.70216414209237
H            1.70714306293186       -0.28350072663184       -1.80889677047016
