73
 energy: -14.395705008425 gnorm: 0.000724709298 xtb: 6.5.0 (97a52f5)
C            2.09569952584583        2.30213743275477       -0.07638545178565
C            1.07668154749303        1.21612074012190       -0.05939248195097
C           -0.13022373725279        1.38456581045385        0.60320108841195
C           -1.07384418420292        0.37533210683992        0.65736699309844
C           -2.35611585011592        0.61004823668492        1.37686535695378
C           -0.80183202549563       -0.83804084702237        0.01930536226745
B           -1.86083837615953       -1.98951535500784        0.07509868697483
C           -3.30096524219820       -1.72573404724257       -0.40807740309426
C           -4.36737046438521       -2.41589985834438        0.15707763092043
C           -5.64496001255670       -2.18849273674029       -0.27870024722456
C           -5.89944470690839       -1.26359144728568       -1.30065251050646
N           -7.24400254846953       -1.02722006238717       -1.76586237378883
C           -7.82264670862560        0.24872689120889       -1.67432270001004
C           -7.13934539748474        1.32447232862014       -1.09919346291104
C           -7.71449726002437        2.56547078507060       -1.00672212994121
C           -9.00267068329724        2.77314151091614       -1.48430297664544
C           -9.70310224809337        1.73639200996652       -2.03957604672800
C           -9.14185629483947        0.45425778136973       -2.14254152669807
O           -9.89621389777975       -0.56243125488760       -2.68629609594884
C           -9.32209723919414       -1.81215242004552       -2.76842735426571
C          -10.06348017195997       -2.86651157593934       -3.32346751696315
C           -9.52732150289632       -4.11961725506107       -3.45035054968384
C           -8.22541439536740       -4.36516492503875       -3.03171388548781
C           -7.47970563845864       -3.35478607078643       -2.48187099117150
C           -8.00394709632756       -2.06835716733215       -2.32259648926213
C           -4.81459526395948       -0.57469141756144       -1.86034007080897
C           -3.53881173975890       -0.80125755939923       -1.41882053725656
C           -1.47626217380243       -3.40881168268488        0.61153469396313
C           -0.90929739524493       -3.54823765059892        1.87955502714602
C           -0.66914486777534       -2.36091847001831        2.74335935121779
C           -0.56989296003799       -4.81375052082114        2.32432787400177
C           -0.78551156995427       -5.93992631591264        1.54293602980056
C           -0.43811385673018       -7.29985756056250        2.04142274720333
C           -1.35983737152728       -5.77818847294579        0.29119722875547
C           -1.70124143595503       -4.52901581404238       -0.19343875227334
C           -2.31875452716575       -4.40986645618880       -1.54295537943707
C            0.40742102290818       -1.03124157704577       -0.65120842031617
C            0.70856229729661       -2.32067582717293       -1.32953097489102
C            1.33153054302387       -0.00166990288539       -0.67257662368619
H            1.62881077762042        3.28311302743128        0.02198202963175
H            2.66017744634934        2.29680641248067       -1.00984525281443
H            2.80289305252100        2.18218415350653        0.74542059254444
H           -0.33542373863878        2.32125478035493        1.09066433200050
H           -2.18327796279368        1.10883954913409        2.33133920405666
H           -2.87509812152530       -0.32540270346694        1.58334982756021
H           -3.02295897189793        1.23747833878228        0.78417233800541
H           -4.17266880989534       -3.12556006387034        0.94223947999712
H           -6.47473190416006       -2.70952673755947        0.16620074836766
H           -6.14785716370052        1.16665568718654       -0.71488496139328
H           -7.16909172106367        3.38149731515621       -0.56143930498575
H           -9.45083752871919        3.75071418574585       -1.41188583919604
H          -10.70394974675974        1.88437093502482       -2.40469690545898
H          -11.06699597106179       -2.66379746763863       -3.65337777144553
H          -10.11227540567618       -4.91647119995940       -3.87996763469491
H           -7.80283286356438       -5.35049392246336       -3.14246852609629
H           -6.46750902478828       -3.54593633566634       -2.17438609798146
H           -5.00118643223303        0.12839261813800       -2.65325849459101
H           -2.70582092355696       -0.27510815882360       -1.85155497834309
H           -1.57934848821217       -1.77176150054566        2.85341940076289
H            0.10244408650425       -1.71942315105406        2.31661351005298
H           -0.34285405951561       -2.65332031019919        3.74217717344022
H           -0.13261843771805       -4.92912367357477        3.30017328456157
H            0.19015786784343       -7.24880529129576        2.93168507719866
H            0.10563297123637       -7.86565255786692        1.28351386313557
H           -1.33834862356056       -7.85986848130117        2.29844025988016
H           -1.54252461252629       -6.64619873643045       -0.31741007472998
H           -1.82647037525902       -5.06966425674598       -2.25861917591318
H           -2.24400518507493       -3.39294334623639       -1.92715893468468
H           -3.37568902167318       -4.67721595639180       -1.50971031385031
H           -0.08968162255659       -2.59032020315685       -2.02075119947645
H            0.81732735751229       -3.12635411619803       -0.60283236968705
H            1.63466787445688       -2.26295442205000       -1.90290213506754
H            2.27045918957392       -0.14569579350886       -1.17717626878483
