72
 energy: -14.221552223243 gnorm: 0.000629337459 xtb: 6.5.0 (97a52f5)
C            2.21789415846577        0.01803849384340       -2.28161805623150
C            1.11519082935377       -0.67752529458120       -1.56263605356590
C            0.33843317774218       -0.00137686224577       -0.63434423191399
C           -0.68882953022149       -0.62830017159093        0.04682515106676
C           -1.44745547309742        0.14072034185860        1.07193873751162
C           -0.95350605916222       -1.97506999362940       -0.22146180458213
B           -2.16492661131712       -2.70987714036534        0.45184131352480
C           -3.57270809501027       -2.07056010083372        0.39620097632001
C           -4.34942687327798       -2.25599625393977        1.53522645512397
C           -5.56115186832631       -1.62853723419620        1.67200612127678
C           -6.02269429718332       -0.78539338588032        0.66881367103635
C           -5.27460530822814       -0.58989936792813       -0.46379747149826
C           -4.04556529917117       -1.23566998509028       -0.64070289063725
N           -3.30159567649156       -1.00715158681528       -1.84336861690789
C           -2.78198737231639        0.24667282179764       -2.26150069028590
C           -2.93430310821928        1.51754213767560       -1.71568232503740
C           -2.24974959151830        2.56937300215786       -2.28193134834615
C           -1.42019951547586        2.37487856161401       -3.38468498337193
C           -1.26759203951126        1.12348423601391       -3.94375486308858
C           -1.95333088877364        0.05367605917191       -3.37968325348524
C           -2.00888753708435       -1.35651961209543       -3.71646971198819
C           -1.43091591007533       -2.09501126479072       -4.74301646948490
C           -1.72381812769584       -3.43940178657356       -4.83608598157107
C           -2.59183409087378       -4.04596527086303       -3.93032398485142
C           -3.16415206031238       -3.32508330300662       -2.90624064706112
C           -2.85670889727201       -1.97458357352382       -2.78147467645602
C           -1.89895838791329       -3.97411057161244        1.35202473168990
C           -0.91539694117364       -3.92202923186901        2.34413984254394
C           -0.15591565663684       -2.67299252304690        2.61870964062105
C           -0.64369913795715       -5.05930111983424        3.08464062848401
C           -1.33271600390094       -6.24371336683687        2.87814678320916
C           -0.99506463569643       -7.46725153594126        3.65773804700792
C           -2.31339067521080       -6.27260311483217        1.89943877521577
C           -2.61832124102218       -5.15584924492709        1.14187314717418
C           -3.67909866522373       -5.26479114845905        0.10419646090453
C           -0.15251801931519       -2.68645082892747       -1.11767065023972
C           -0.35904752616929       -4.14095531365046       -1.34450837092832
C            0.87133710289798       -2.02620947075414       -1.77253541180130
H            1.98972675650174        1.07568820905946       -2.42178649769809
H            2.38015347390583       -0.41800593045002       -3.26840294328965
H            3.15196046880196       -0.05454024154565       -1.72269424591877
H            0.53912371680499        1.03728421078069       -0.43873169926946
H           -0.79035545323431        0.45370184761684        1.88458292649318
H           -2.25402451810798       -0.44863728160015        1.50509493251271
H           -1.88665882137835        1.03928046841068        0.63952253458987
H           -3.97395220341202       -2.88557928289092        2.32298594304698
H           -6.15040248350393       -1.77906605403909        2.56187903481902
H           -6.97040500251665       -0.28465357523104        0.78186980036429
H           -5.63162517237889        0.05575546325454       -1.24721107954354
H           -3.57813937414821        1.65984105425233       -0.86621710290748
H           -2.35443896235614        3.55744528716837       -1.86424685028178
H           -0.89202504542790        3.21407543838588       -3.80699394265465
H           -0.62929883837212        0.96387664887203       -4.79494833854193
H           -0.77589176245545       -1.61369904650278       -5.44781609075301
H           -1.28406064957796       -4.02647385335088       -5.62567047313867
H           -2.81855488327746       -5.09465877599576       -4.03287296170316
H           -3.85865532142641       -3.77708874569673       -2.22334018327121
H           -0.83533206825927       -1.83433182274342        2.76666534968247
H            0.51527999013187       -2.43312424991477        1.79360143656737
H            0.45028181679919       -2.76539087630729        3.52088433511627
H            0.12399728948704       -5.02672814473785        3.83753156720238
H           -0.66209541475816       -7.21279541816700        4.66504275951985
H           -0.19571340975313       -8.02782593444945        3.17085599428025
H           -1.85926422368127       -8.12646878832682        3.75144977378294
H           -2.84870864321157       -7.18874742379941        1.72155653361330
H           -3.29077180388265       -5.72504681271106       -0.80511559838743
H           -4.08749211748817       -4.28946899741828       -0.15195438565704
H           -4.50858597217385       -5.87865889900291        0.45874883782334
H           -1.41199537298103       -4.40154829543811       -1.25078583475309
H            0.19998764932405       -4.73141319743225       -0.61747478741115
H           -0.03354030212730       -4.43540104660529       -2.34314972839961
H            1.48832251000914       -2.56944192944179       -2.46627700518906
