74
 energy: -14.396332012676 gnorm: 0.000591266470 xtb: 6.5.0 (97a52f5)
C            1.83946421901490        1.93171719324710        0.21000529715002
C            0.79030301353558        0.88309647091263        0.07827982451160
C           -0.50628141930363        1.11935649509980        0.50782867329226
C           -1.49237786613348        0.15358667875366        0.41335807264109
C           -2.83311444137809        0.44917772571246        0.98770706254179
C           -1.17088630261133       -1.08892117521581       -0.14286578033903
B           -2.22864638701143       -2.23975110535953       -0.28945914257265
C           -3.62825303936519       -1.99007036278299       -0.89847216717473
C           -4.61458739694897       -2.78048350517970       -0.31263005828802
C           -5.93800310793666       -2.62088752141219       -0.62888518836371
C           -6.31643548418263       -1.64894004665118       -1.54621450829617
C           -5.36674999682103       -0.85947626233176       -2.13758258979423
C           -4.00105203775659       -1.00663842674042       -1.84644345941755
N           -3.05826885768294       -0.18599898119240       -2.53206429763449
C           -3.37468666045238        1.18722729497078       -2.80919697529359
C           -2.89837061976187        1.82274938741328       -3.95613171494274
C           -3.20261440652931        3.14023115456553       -4.21380078812417
C           -3.99343803191502        3.85400265752691       -3.33426331498915
C           -4.48445414957134        3.23946710982663       -2.19863922011025
C           -4.18194025662016        1.92171107016697       -1.94093899020388
C           -1.91668747826622       -0.76722402103605       -3.18550352562659
C           -0.69810339589412       -0.09167029350441       -3.24244877446202
C            0.37233671493034       -0.62702006457050       -3.92170719652111
C            0.24684601332419       -1.84510158116504       -4.56214251562962
C           -0.95683398316490       -2.52308456377770       -4.52416312780717
C           -2.02882782119537       -1.98929025622522       -3.84584801899479
C           -1.93220624555239       -3.61563657130988        0.41884655103768
C           -1.65630061987862       -3.64852205559412        1.78731390969698
C           -1.69296486293332       -2.40820605373173        2.60629396195950
C           -1.35767216795299       -4.86129792235134        2.38351971742132
C           -1.33604449136874       -6.04226431130462        1.65736662881115
C           -1.03280103876675       -7.33926403606823        2.32436601696102
C           -1.64654535725952       -5.99296341150723        0.30690741332677
C           -1.94540348691074       -4.79951405012445       -0.32430835681991
C           -2.27221270128055       -4.80773419952663       -1.77461584403353
C            0.13813165139363       -1.35654525632620       -0.55378887470186
C            0.51504425742852       -2.68245835283304       -1.11192290431568
C            1.09876239638647       -0.36858284215623       -0.43034092966225
H            1.41092988316961        2.93074412380512        0.11689352186850
H            2.60110078795037        1.82555243758534       -0.56393133964744
H            2.33373469668243        1.86619469894134        1.18033294036136
H           -0.74867843863676        2.07451765776368        0.93963936345313
H           -2.79197102986723        0.45993695912532        2.07772219078041
H           -3.57582847587162       -0.28833016787395        0.68961352018022
H           -3.18361921732307        1.42981702941967        0.66524476138215
H           -4.32581872054188       -3.51523079433654        0.41811140465865
H           -6.68547308979080       -3.24108176900110       -0.16148182790884
H           -7.35759351633633       -1.51957271994795       -1.79346105210037
H           -5.65869667122254       -0.12148453697315       -2.86423792025938
H           -2.29848197670276        1.26376484546253       -4.65227959786684
H           -2.82523349711716        3.61544988330549       -5.10481210976005
H           -4.23129736424875        4.88581810265718       -3.53630425019176
H           -5.10844236173601        3.79189699563673       -1.51483908288629
H           -4.57933491819974        1.43897009444929       -1.06620750743201
H           -0.60267239679091        0.84804010720548       -2.72688869116504
H            1.31154696043266       -0.09882687778765       -3.94786300358960
H            1.08653111158092       -2.26508690132925       -5.09163660805390
H           -1.05758359998553       -3.46948318924998       -5.03019461289103
H           -2.97954144265827       -2.49299980593505       -3.84328515314604
H           -2.62599103620290       -1.86900246490064        2.44287696893508
H           -0.86434470952159       -1.74703449154037        2.35085729927305
H           -1.62405918893857       -2.63081822341772        3.67203827249926
H           -1.14073108891064       -4.89183570694773        3.43672828278540
H           -0.31451111350628       -7.20616043194168        3.13474949303447
H           -0.60698569623560       -8.05520018802295        1.61975979044429
H           -1.93772212888629       -7.77927640433822        2.74593125366142
H           -1.65448804367413       -6.90451781914245       -0.26444000494265
H           -3.12191041282025       -5.46034477446958       -1.97883635286408
H           -1.42639276032118       -5.16193793261530       -2.36504018235877
H           -2.53075687168948       -3.81044253513687       -2.12246068288495
H           -0.24327245551378       -3.03580725122754       -1.80929040655247
H            0.62195797742838       -3.42364858123278       -0.31920034471155
H            1.46012038056716       -2.63231927403532       -1.65421006771238
H            2.10737627173992       -0.57237610215343       -0.74392312972865
