79
 energy: -15.105053487265 gnorm: 0.000861512869 xtb: 6.5.0 (97a52f5)
C            2.94944230643594        0.91906242658010       -2.70052595297764
C            1.85371077838380        0.09446665075399       -2.11953130552275
C            1.09845407143030        0.56864074746131       -1.05882088369821
C            0.09672766942564       -0.19360397574433       -0.48537267333011
C           -0.70958938832618        0.37651565711341        0.62565708413229
C           -0.16277207888268       -1.46699791253661       -0.99577399935806
B           -1.29739625499288       -2.31327402514615       -0.31086223534377
C           -2.70166736274701       -1.72244781176615       -0.17507134685515
C           -3.18492969775774       -0.93022323972753       -1.26114004346918
C           -4.46373339740341       -0.53017255896536       -1.12281395108683
S           -5.12967902101861       -1.11547173853058        0.36147095842459
C           -3.64337788901189       -1.86849746375676        0.85333237790041
C           -3.50698957670826       -2.54165322816781        2.13383300485729
S           -3.01436777169266       -4.22443801571948        2.36708710343930
C           -3.47611183718274       -4.20668771381843        4.01984679238925
C           -3.80521173442548       -2.94676984878179        4.42031576055059
C           -3.80255839574581       -2.00179464217251        3.38065492483563
P           -3.87018092269586       -0.26308530382501        3.90799146316240
O           -4.47047731964472       -0.18032879961780        5.33775751366499
C           -4.81578162695725        0.80844051401094        2.82730024839966
C           -4.18746117318967        1.62678412562903        1.91816575743968
C           -4.94205000917897        2.45505852993318        1.10763245665818
C           -6.31891766571222        2.45793258377073        1.21963616655868
C           -6.94249667401713        1.63819733342031        2.14063206049526
C           -6.18395806135134        0.81008183764325        2.95018020109467
C           -2.16503179962467        0.30153060019973        3.98359251487905
C           -1.90574825122865        1.62780985978593        4.23068751313935
C           -0.59534057276838        2.06598335756066        4.30519611459848
C            0.44168896174158        1.16763352231554        4.14308740537995
C            0.17288196601310       -0.16707172069045        3.91037935986334
C           -1.13785168825013       -0.60045057291325        3.83196726513461
C           -1.08475753723920       -3.83930083566842       -0.04023286486017
C           -0.01116067064908       -4.22018442034054        0.76357161089217
C            0.88081152013692       -3.20091546140770        1.37783257513599
C            0.22211757590620       -5.56804625214596        0.96934947638521
C           -0.60185471351605       -6.53664992085398        0.41480453992454
C           -0.34739036075482       -7.98616091813554        0.64398175931228
C           -1.67082040533348       -6.13079119239830       -0.36978437803602
C           -1.92653372859787       -4.79299625722185       -0.61253423839595
C           -3.09844027586013       -4.40399967683289       -1.44335331324857
C            0.58086063560049       -1.96235486989923       -2.06790116022926
C            0.32431595127781       -3.31464764825340       -2.63294622170044
C            1.58672401753118       -1.17663425787106       -2.60402910171960
H            2.69100907179317        1.97869395425139       -2.68998989896357
H            3.14889708764146        0.63813240836053       -3.73529850556921
H            3.87201190094054        0.79101856236012       -2.13315351134366
H            1.29674804882176        1.55260160371405       -0.67202851690918
H           -1.52753030078084        0.98174353201203        0.23437394612544
H           -0.10040892214749        1.00994251106112        1.27097571498157
H           -1.14035028394658       -0.40972308833585        1.24451860043509
H           -2.57225126544583       -0.69651065783233       -2.11830068358915
H           -5.01185739078796        0.06512863451933       -1.82825887078878
H           -3.43250308372070       -5.06876514614957        4.65834452313532
H           -4.02952948508581       -2.67877634756911        5.44452512521609
H           -3.11282705425308        1.61423654204550        1.84353487412823
H           -4.45570187844765        3.09393068993002        0.38890457113647
H           -6.90825405848391        3.10137164721274        0.58707538080803
H           -8.01644997291359        1.64152044628277        2.22924261939590
H           -6.65158549791104        0.16571306036808        3.67862769452321
H           -2.72696874952534        2.31416088096040        4.36623197229814
H           -0.38495796344388        3.10626830769989        4.49174634965903
H            1.46260368029104        1.50830863811052        4.20041260722104
H            0.98183741395444       -0.86837512162513        3.78829734062947
H           -1.36325752782510       -1.63806514091922        3.64709055665181
H            0.32974193758629       -2.28797776231545        1.60210884688802
H            1.69907491803831       -2.94396697984559        0.70441403306684
H            1.31109304400454       -3.56408212326010        2.31176478815316
H            1.05592197661373       -5.87014418995563        1.57773859891637
H            0.43635931352591       -8.14018018998191        1.38658659704070
H           -0.03471247912873       -8.47528384461988       -0.27942385686406
H           -1.24785961406434       -8.48643431749494        1.00268040283078
H           -2.31750213305387       -6.87595462851952       -0.79817416677161
H           -3.36444214125274       -5.19427714132884       -2.14639687973480
H           -2.89349955861487       -3.50428021404866       -2.02284899202462
H           -3.96725121667358       -4.20741136294886       -0.81412532022516
H           -0.74287744463846       -3.48057496149735       -2.77465101426071
H            0.70582764153959       -4.09264993348548       -1.97103845432654
H            0.80618329888987       -3.43811114936306       -3.60354230248377
H            2.17430109718629       -1.55908458109662       -3.41974450813869
