85
 energy: -15.245731590255 gnorm: 0.000818368151 xtb: 6.5.0 (97a52f5)
C            2.30687521826387        1.20189520364289        0.21675582551393
C            1.07969850284983        0.36041902117291        0.15904437616262
C            0.19620234108996        0.32271380855296        1.22659810785418
C           -0.93877802733520       -0.47043044421988        1.19991857282399
C           -1.86914012070084       -0.45909261416396        2.36144412097167
C           -1.19702986772609       -1.23339617356270        0.06395807944638
B           -2.48943850033231       -2.15803154135171        0.00197652277095
C           -2.21569857784511       -3.72178743973107        0.01347576076458
C           -1.57626786198946       -4.09477729449260        1.17311166226444
C           -1.19486688989499       -5.41153173237200        1.40111833503480
C           -0.52818228641088       -5.86057760238460        2.71012383837721
C           -1.42139048899771       -6.90510860850086        3.40404399068507
C            0.84637112388953       -6.47995087046029        2.39664200167308
C           -0.31886012122752       -4.67810875515141        3.67608699856309
C           -1.43148786069582       -6.32661472560146        0.39852373349654
C           -2.01457696364613       -5.97783096010056       -0.83419670288945
C           -2.17411888450212       -6.95133403497896       -1.88759092367433
C           -1.54659836418076       -8.24638538620538       -1.82743948380555
C           -0.35442768165718       -8.55015246618854       -1.21943786415436
C            0.18920835069441       -9.78775128898882       -1.18703610777956
C           -3.11347070558081       -7.56498130212047       -4.04660331825667
C           -2.94481650977322       -6.62803107493042       -3.05162629104540
C           -3.46343844497594       -5.30943609111690       -3.22992022823641
C           -4.21679946277297       -4.96579195020463       -4.44901901021206
C           -5.34351892349581       -5.71224730902759       -4.81557699283301
C           -6.09104664412031       -5.40643448518377       -5.92835063120466
C           -5.74131550238492       -4.33107023473778       -6.74256097458444
C           -4.64293922660752       -3.57653566866055       -6.45472457928011
C           -3.82092641183728       -3.85576283125786       -5.31507979516945
C           -2.75012933884325       -3.17242934945566       -5.11663520119889
C           -3.48143550171360        3.15729156090796       -2.56178669002737
C           -2.26780199619023        3.22098146482408       -1.84002921381856
C           -3.46944394225988        1.68979946527172       -1.86039672667959
C           -2.22650996447893        0.62522370605828       -3.85641476230297
C           -5.46985669955513        1.35057829593865        1.55849843179475
C           -3.35680365470182        0.52947975031952       -2.86454996102936
C           -2.06785296652325        2.02738943796782       -1.11161322662917
C           -3.73708190133260       -1.64771055226088        0.20881621038948
C           -3.85769335652760       -3.18158753661380       -2.28725755712698
C           -3.26192390689612       -4.30284366451264       -2.19295915942432
C           -2.48321553528564       -4.65232218629440       -1.00052453409685
C           -0.31717557788495       -1.22664132387690       -1.01404420772907
C           -0.55530169675096       -2.08678623554965       -2.20352172656314
C            0.81567783498083       -0.43253725046806       -0.94697807641550
H            2.14201302568762        2.09653683717223        0.81857085930988
H            2.60952040739131        1.52560348014282       -0.77989493851550
H            3.13619585481093        0.64727415923449        0.65740574274628
H            0.39683831644838        0.92367633383690        2.09592270603144
H           -1.32083645947729       -0.39323197423852        3.30202647591922
H           -2.47509015440691       -1.36402981118046        2.39707511364294
H           -2.54416431727570        0.39539320872099        2.30540482572660
H           -1.37829189151645       -3.33906638994956        1.90914946618753
H           -1.55202647324085       -7.78998370678336        2.78285644705046
H           -2.40812131747963       -6.49157010100687        3.60988512686674
H           -0.98500741311471       -7.22411647941145        4.34999440883860
H            0.74877519394830       -7.36316870072800        1.76742300833374
H            1.35671818305399       -6.77898027569529        3.31157601348987
H            1.48075932679764       -5.76439088180547        1.87466303715826
H           -1.26916126992884       -4.21795104878932        3.94464025865675
H            0.32166414570801       -3.91725121860524        3.23122530447308
H            0.15721723931871       -5.01162468009471        4.59767085186356
H           -1.19776066908846       -7.35640287253967        0.58788306811267
H           -2.01360058886974       -9.04342106121963       -2.37955884278594
H            0.22422508911817       -7.73861761791525       -0.80234550760243
H            0.94806332681505      -10.43565248391245       -0.92047854706146
H           -2.99119258412380       -8.49421517671145       -4.47965091816044
H           -5.63514838230835       -6.53675688693183       -4.18819356633700
H           -6.95706871645292       -5.99981373483223       -6.17201231577222
H           -6.33995651887768       -4.10156248899555       -7.60891313894866
H           -4.36665533379078       -2.75698867535351       -7.09623544446681
H           -4.00253652748798        3.83301633201028       -3.22497692875902
H           -1.26396528869180        0.68367957750672       -3.34584731514225
H           -2.32347784998084        1.51881331335351       -4.47497458289087
H           -2.19402533137437       -0.23736331124672       -4.52528973524356
H           -5.80632585486463        1.13754647357877        2.54898170914411
H           -4.92357730335563        0.51610190264260        1.17872563385143
H           -6.30813371956900        1.54589071684619        0.92812284536571
H           -4.40475073081190        0.20922650383013       -3.33258514701737
H           -4.28606812762371        1.61455406441154       -1.12181567519551
H           -3.47354489869492       -0.53603494320187       -2.34816031991719
H           -1.28469096124533        1.64242965121188       -0.47644528894477
H           -1.60448941472954       -2.06521425620917       -2.49379466520280
H           -0.28436688792486       -3.12190414743648       -1.99358244694514
H            0.03078960878603       -1.75361168811332       -3.06053122693687
H            1.50632227683919       -0.42943865638435       -1.77146897863211
