79
 energy: -14.049982227642 gnorm: 0.000889988300 xtb: 6.5.0 (97a52f5)
C            2.33855714868319        1.40805184930086        0.94623651378627
C            1.13290165687637        0.54507893773258        0.80345756349288
C            0.20561996402235        0.44850876075133        1.82950284156290
C           -0.90766889109729       -0.36924918128857        1.72532377185767
C           -1.88479895436257       -0.44350489366409        2.84569694117218
C           -1.10038371403369       -1.09192130155662        0.55213666550553
B           -2.38310285105662       -2.02394517623189        0.39935160374932
C           -2.09797097750005       -3.57883718821519        0.26844933757044
C           -1.27793313632559       -4.02139532733316        1.28087070517212
C           -0.86537656583410       -5.34889196995769        1.36835887101423
C            0.06151723098813       -5.84913846542221        2.48652665506788
C           -0.66989546059770       -6.92477915402235        3.31013467453165
C            1.33540617576714       -6.44953166061066        1.86312444489888
C            0.47796470674362       -4.70693829236938        3.43419428503697
C           -1.31596664950894       -6.22180741529034        0.40264211062484
C           -2.15502017380557       -5.80473904971460       -0.64496511140851
C           -2.59089173878685       -6.72995043207130       -1.62941405413585
C           -3.42083440625801       -6.35610868369291       -2.64297683124819
C           -3.89864905273345       -5.03885228619531       -2.78368279454795
C           -4.79724067633330       -4.72599229097505       -3.89018481060661
C           -4.55853127041843       -5.29047816491531       -5.15575731729541
C           -5.35324366410231       -5.01844800837277       -6.23949117338887
C           -6.45523187978493       -4.16717471827793       -6.11769092015764
C           -6.76970535098436       -3.61799281620301       -4.91435020595256
C           -5.98647699337548       -3.88266946059637       -3.73797249952586
C           -6.39607076902260       -3.44956825914648       -2.60212704187726
C           -3.58703202482443        2.51210789452395       -3.24841266622362
C           -3.10465214920690        2.47775683687090       -1.92080935426837
C           -3.27280320010019        0.92493379723077       -3.08312275562348
C           -0.83181132580928        1.14095663823473       -3.89646280415395
C           -6.49546357410158       -0.04820138678813       -1.34030853282839
C           -2.15468600900508        0.42882884062442       -4.01720758787573
C           -2.77944654938900        1.15440079389464       -1.55070921876677
C           -3.64135328584671       -1.55292431298898        0.61947919483608
C           -3.61423555370418       -2.78414200778427       -2.07890658510087
C           -3.40606073461870       -4.01952050882633       -1.85030127180287
C           -2.55855132018601       -4.45276509726509       -0.72543557799149
C           -0.17474304857652       -1.02819071516535       -0.48417420537554
C           -0.34859350995434       -1.84567545145836       -1.71355126753212
C            0.93545346035215       -0.21259816409545       -0.34036176594351
H            2.11822392814702        2.29599889745328        1.54109451323889
H            2.70069594782997        1.74366988481579       -0.02685514640350
H            3.14776393101232        0.86563388929583        1.43773061167249
H            0.35706283695367        1.01930993841867        2.72860713271369
H           -1.40972457496089       -0.21616091246355        3.80082166534042
H           -2.31820625950815       -1.44099515846758        2.92238092298254
H           -2.69840757905668        0.26736538024204        2.69613041208194
H           -0.94648556546201       -3.30508736013805        2.00879430885798
H           -0.94203682743740       -7.77900244469751        2.69166391362420
H           -1.58395753636866       -6.52117837739459        3.74474476106429
H           -0.04134171573958       -7.28800177251110        4.12273098334504
H            1.10171166044113       -7.30055119411264        1.22501617844826
H            2.02287877269352       -6.79250871379425        2.63584262912426
H            1.85308441404497       -5.70735511580625        1.25605078648237
H           -0.39047643431013       -4.26422513525718        3.92097004998078
H            1.00971569681840       -3.92386540892127        2.89425336496585
H            1.14056143093662       -5.07620967828713        4.21655841389808
H           -1.01966183529522       -7.25420620425516        0.44175236733225
H           -2.26007051455781       -7.75167715409978       -1.55568036273422
H           -3.75613840691121       -7.09810438020190       -3.34698323270141
H           -3.69778357893853       -5.92461935917715       -5.28041188234847
H           -5.12411083786701       -5.45788014306568       -7.19660051756227
H           -7.06363536806665       -3.95646542135325       -6.98217527862063
H           -7.63528541620325       -2.98423534492016       -4.81908276710903
H           -3.93550350991910        3.29373439616576       -3.90873812195105
H           -0.93876336325067        2.20418037280085       -4.11659680465545
H           -0.08341149079135        0.73454454310903       -4.58017203708646
H           -0.43465928942446        1.05559917506968       -2.88391517399940
H           -6.64105687846480        0.69010988535333       -0.58289866870113
H           -5.62573756916748       -0.62518151852953       -1.11593253264888
H           -7.34720541939941       -0.69035160380256       -1.38653167331210
H           -2.52833052169112        0.25909534153413       -5.13738004166999
H           -4.21324590267045        0.34745134638304       -3.10257741914401
H           -2.08137568088582       -0.76032400387233       -4.07954945141873
H           -2.37345940693293        0.69463609390653       -0.66228378650887
H           -1.37718857901899       -1.79294410053960       -2.06680261670184
H           -0.11036655405885       -2.89249026718724       -1.52100807297906
H            0.29738206991165       -1.49710867495512       -2.52025942022833
H            1.66053104786447       -0.16473220993209       -1.13345783171709
