64
 energy: -12.751130617591 gnorm: 0.000592604608 xtb: 6.5.0 (97a52f5)
C            1.36001430262486       -0.17612679365028       -0.62410233369354
C            2.55855339755987        0.05909647728663        0.23547534650758
O            3.11753752999329        1.13331276593876        0.21438568296053
C            3.05569680741473       -1.01952990319527        1.10611046398862
C            2.43092235872520       -2.29639902378374        1.16946713590381
C            2.92225975815512       -3.27313468151001        1.96440829994137
N            4.04485120661211       -3.03083761774077        2.73478469360837
C            4.77666082203344       -3.82671752629004        3.60591253154259
C            5.83630666470679       -3.09557045363180        4.11925828565656
C            5.78453163199646       -1.79651301011149        3.59225749568425
C            6.68661854993986       -0.68963421090259        3.92476859788263
C            6.22695750088123        0.62518622537958        4.00012085009758
C            7.07891066214847        1.64971932168168        4.33186718758614
C            8.42027577792945        1.40901833083297        4.60601363857921
C            9.25548029292021        2.48410593213823        4.94102305994591
N            9.93246430304142        3.38573283609175        5.21860207207685
C            8.90029071154196        0.09006800779516        4.54451100609109
C           10.24146244420178       -0.22579082446230        4.81592351459077
N           11.34512028287458       -0.50850450216236        5.03762252943804
C            8.02786758614057       -0.93117922269861        4.20810122168230
C            4.66422292397060       -1.78251091995525        2.71355930023613
C            4.16421995523889       -0.77667168827162        1.87532694110086
C            6.60174972639887       -3.95532029418555        5.08544545856472
N            5.82940476482818       -5.22233809295898        5.05345415211957
C            6.18061044320573       -6.46136115825505        5.75644742386930
C            6.75730071831015       -6.21319238136808        7.14278951679845
C            7.08543913888652       -7.48990732350076        7.90446428144990
N            7.68432464201588       -7.22791676670514        9.19920237642192
C            7.54792209945538       -8.11388174593032       10.25293361120103
O            6.82993879152926       -9.09282978384544       10.14598599466841
O            8.26923776231231       -7.79791565947924       11.37519963685617
C            8.13193286875729       -8.73232261710400       12.47943154280239
C            6.67059084020177       -8.78142222118329       12.94491834732213
C            8.61875137331020      -10.12409435301695       12.05395399431811
C            9.01588290713277       -8.20964151835180       13.62275249325642
C            4.75075867631731       -5.18043666189969        4.17051571808402
O            3.95555044982830       -6.06838210293519        3.91706779285224
H            1.13446547105053        0.72306970110938       -1.19622140359906
H            0.48450504994644       -0.41715841444858       -0.02175094611886
H            1.53555942594751       -0.98662874024021       -1.33108377204920
H            1.55888882345725       -2.48657452103969        0.56937524119123
H            2.47032789598875       -4.24773390224003        2.02033360314785
H            5.18440303574494        0.82812107869997        3.83049823186478
H            6.71176945155560        2.66059056428143        4.38988067919886
H            8.40368230850407       -1.93658296157786        4.15298997691199
H            4.65399115314656        0.17679348537966        1.80757797632359
H            6.60389330145608       -3.52727933886869        6.09130841931364
H            7.62865580440327       -4.13052306142874        4.75466061342825
H            6.88842051829507       -7.01541375985910        5.13377442169919
H            5.27613007030300       -7.07354956305307        5.81980039296052
H            6.05546672703652       -5.60933550999126        7.72815613527405
H            7.66183681209446       -5.60196516549548        7.05653322750387
H            7.76869993323065       -8.12327981527557        7.32769933427983
H            6.17985186735947       -8.08519052600723        8.06772698339097
H            8.34769638906082       -6.45838212531538        9.25458679090402
H            6.02921169381184       -9.14349874594771       12.14333306135518
H            6.32848840583718       -7.78603150887794       13.22213303807171
H            6.55152622396367       -9.43991986622558       13.80392074157566
H            8.00449247606599      -10.50892856510986       11.24183390450100
H            8.57281329814765      -10.82908109263882       12.88255584011904
H            9.64663159401291      -10.07326718956243       11.69960285053187
H            8.69957182323927       -7.21056968813645       13.91693697567559
H           10.05282158899848       -8.14576966978060       13.29802114475927
H            8.96491818421196       -8.86042793642060       14.49431667579089
