81
 energy: -15.214938409674 gnorm: 0.000529826452 xtb: 6.5.0 (97a52f5)
C            1.98677518419517        2.06842242303235        0.30528723702642
C            0.87830417760601        1.07516613114097        0.24682019525055
C           -0.37468145434447        1.38160762102525        0.76183601647097
C           -1.40527401617019        0.45833318483369        0.74732124350803
C           -2.75275646584938        0.79320195227828        1.28102544625394
C           -1.16726571346269       -0.79614191654456        0.19362877675348
B           -2.32075353600623       -1.85224422580800        0.17130826243961
C           -2.39335376967494       -2.94741339886834        1.23028064887805
C           -1.44814235145353       -2.94965061422100        2.24536292261991
C           -1.36189110008309       -3.98627162773287        3.14865421193086
C           -0.29689167864116       -3.94354115610831        4.25435619310007
C            1.10136971614482       -3.89111633906442        3.61086028647487
C           -0.51474076804933       -2.68864847324996        5.12061063152749
C           -0.37021790090082       -5.18349453296623        5.16597114127911
C           -2.25170730156694       -5.05044080529296        2.98971529193592
C           -3.19785066067792       -5.04861510733223        1.99245369318789
C           -3.33273383488937       -3.97880613524205        1.09717063599172
C           -4.33956365725013       -3.94334406926089        0.02896730656036
C           -5.45851902089581       -4.81656692082578        0.00257708553699
C           -5.89209003508903       -5.62149004111969        1.17159800078998
C           -6.05343699726508       -7.00601851226694        1.07077920631467
C           -6.45948473492486       -7.74775156405514        2.15791109526349
C           -6.72319730177434       -7.12623669644268        3.36367427474861
C           -6.58316571147510       -5.75654541452174        3.47954460077402
C           -6.17631177757097       -5.00988213360059        2.39636900568874
C           -6.26850724270545       -4.87432420984996       -1.14865324190976
C           -6.06008345913439       -4.06224126450923       -2.22041451663526
C           -5.03285189385611       -3.09723675415637       -2.19396190475558
C           -4.84718758038549       -2.19990345537833       -3.26478295545807
C           -3.87243825019127       -1.22362983744041       -3.24464026254310
C           -3.71746273282302       -0.26574061924451       -4.43592511577737
C           -3.39413854583269       -1.07768049641157       -5.70355632190824
C           -5.03057715609259        0.51260398697666       -4.63875653620788
C           -2.58095502699559        0.75024752481383       -4.20583447690768
C           -3.05908627893802       -1.14145675986245       -2.11686917829806
C           -3.20606369637518       -2.00822570785171       -1.05605230246506
C           -4.18484651036704       -3.02466480345942       -1.05871105484438
C            0.07855379761317       -1.13139469857209       -0.33083061670018
C            0.32521145971116       -2.48838804253494       -0.88813859064592
C            1.09056600486425       -0.18978236217034       -0.28545070826261
H            1.60552154515839        3.08877798334142        0.24351582698871
H            2.68685502890461        1.92657711360084       -0.51937061488446
H            2.54327915013311        1.97300933204365        1.23876752818163
H           -0.54569471873189        2.35636272509252        1.18332055313969
H           -2.71956876266967        1.67324587310765        1.92437848300811
H           -3.15382378331046       -0.03430449402220        1.86764709004902
H           -3.45102425106202        0.99553321177732        0.46797291117974
H           -0.75979057425174       -2.12718349244825        2.30727642646500
H            1.22113943524565       -2.99970946153523        2.99624200193054
H            1.26549721391087       -4.76058266483196        2.97473825971017
H            1.88097424670738       -3.87759766924225        4.37224686158271
H           -0.42057717520551       -1.77817671654287        4.52993897788642
H            0.21685380433787       -2.63940361993453        5.92686408696875
H           -1.50905155556200       -2.69664872310220        5.56668099938319
H           -0.19339094060778       -6.09780838118700        4.60003466271897
H           -1.34438866818277       -5.25772276931366        5.64885119058633
H            0.38414535296687       -5.13113591318859        5.95093819371592
H           -2.19850871682726       -5.89229102344432        3.65707571222175
H           -3.83470730451303       -5.90620797905027        1.88580890544825
H           -5.84260488777326       -7.48834039119316        0.13160792947947
H           -6.57230253204987       -8.81610037395319        2.06781155263994
H           -7.04017634053878       -7.70951371035383        4.21309758545922
H           -6.79043741542525       -5.27162559812682        4.41974812678032
H           -6.06503102884956       -3.94242980683916        2.48206478396922
H           -7.09291367664426       -5.56725041760236       -1.15719724769957
H           -6.69985950504101       -4.12272246906082       -3.08417404309373
H           -5.49652892341985       -2.28165757541351       -4.11735678619950
H           -4.19490906048523       -1.77689873676267       -5.94103068857448
H           -2.47733916642827       -1.65137959440961       -5.56947123892015
H           -3.25890966693046       -0.42131600271752       -6.56302552058800
H           -5.85946013350232       -0.15890473051053       -4.85901156371651
H           -4.94307712010062        1.21593955744973       -5.46666378203490
H           -5.28588728503390        1.07676288374381       -3.74194410546845
H           -1.62425297091452        0.24587598645332       -4.07179471876768
H           -2.77497158060996        1.36373498760475       -3.32630087707372
H           -2.48300453703494        1.42055579632346       -5.05963226875536
H           -2.29531539222632       -0.38997052925767       -2.05250223839456
H           -0.60802041516535       -2.96017583560702       -1.19811583897492
H            0.79490564285680       -3.13341353610862       -0.14440269770801
H            0.98030649961051       -2.44310877967775       -1.75932171061916
H            2.06272799086230       -0.44350858325579       -0.66983833503996
