114
 energy: -21.621161041601 gnorm: 0.000419690929 xtb: 6.5.0 (97a52f5)
C            2.53819866625132       -1.39322986356743        0.67392880808690
C            1.28406206274585       -0.66543402022372        0.32297236608015
C            0.13529469750394       -1.38265651743907        0.02644798304842
C           -1.05917989664665       -0.76056046376539       -0.30234091003098
C           -2.26072214996387       -1.58874321554605       -0.61242178656695
C           -1.10686392383725        0.63031941159103       -0.36024794802172
C           -2.37380678277836        1.32817066881806       -0.72732491621226
C            0.04222314115928        1.37873086002682       -0.04446512883635
C           -0.00869780229836        2.86552914107976       -0.09010774213357
C           -0.60770825219133        3.56654752298912        0.94860879431677
C           -0.69017017383735        4.95290996659544        0.96383552311769
C           -1.35188779172140        5.64128659687711        2.10553432182353
C           -0.65646207763017        5.81476709009841        3.31641433882616
C            0.73554955167101        5.29617259702861        3.45833742918322
C           -1.28452447911122        6.45039164249860        4.38492218058315
C           -0.58591654065589        6.64274504692944        5.68898466077291
C           -2.57231871172799        6.93655454176710        4.21984032542735
C           -3.26903900390889        6.79233476790982        3.03000987720684
C           -4.65425347597932        7.33435908154138        2.91562814010473
C           -2.66725402033266        6.12244300201291        1.96753805192672
C           -3.39968645533777        5.94110632068241        0.68000944092195
C           -0.13987365217732        5.69016638451877       -0.11432577041651
C           -0.18358997772078        7.11077080483543       -0.15097616331331
C            0.34411112888442        7.80627945278122       -1.18683699552337
C            0.96693532202585        7.14633222661341       -2.28145437046368
C            1.52584382647564        7.86470875736138       -3.36815949232615
C            1.50619095211486        9.35268308220898       -3.39707071004816
C            2.41676924039996       10.08148861057389       -2.60916756031142
C            3.40461427687854        9.36524685933557       -1.74979152064317
C            2.37484646692828       11.47360328070262       -2.61979238635497
C            3.31236097268645       12.28137714722420       -1.78663092928770
C            1.46275941538698       12.11602533235659       -3.44261410346487
C            0.57256371544374       11.41835590667975       -4.24431149214796
C           -0.38639295458723       12.16886395964939       -5.10625719354768
C            0.57552133487370       10.02577995510511       -4.21012537420552
C           -0.38112570766003        9.24772162473590       -5.05047431360370
C            2.10211813630634        7.16237148118002       -4.41885058442775
C            2.16347460700062        5.77504030390691       -4.44583647975681
C            2.78622807550289        5.08500830324282       -5.60816343981351
C            1.97187219587519        4.47655363548296       -6.58165465732658
C            0.48571360366010        4.53039311035508       -6.45603805231758
C            2.56193615771316        3.80657232585391       -7.65064516405507
C            1.73349735167805        3.13512294697519       -8.69396472679254
C            3.94386753892064        3.79089889962507       -7.75863065883760
C            4.76441212422204        4.40382098562338       -6.82428306741384
C            6.24532169031963        4.34871840984384       -6.99618791544397
C            4.18763183784956        5.03897432285893       -5.72685444329101
C            5.04507146715062        5.69226686151488       -4.69494815400613
C            1.62762758061264        5.03867227718006       -3.35967258950805
C            1.67597956511511        3.61821508690823       -3.32019824429155
C            1.15333379166842        2.92297000613009       -2.28163037140091
C            0.53829590146251        3.58344854722348       -1.18306104758099
C            0.47247708603166        4.99850453797405       -1.18811456567101
C            1.02509408414360        5.73092884489255       -2.28067719833822
C            1.23814051877308        0.72655936512275        0.30951628356441
C            2.45574545426235        1.52292931271953        0.64172186147307
H            2.46083295009541       -2.45527780197770        0.43637226437039
H            2.75354119492499       -1.30727958806236        1.73996567962447
H            3.39095387212427       -0.99645832370263        0.12122591924231
H            0.17191267005084       -2.45754915707884        0.05305702295214
H           -2.11727452289066       -2.62633696543835       -0.30701174564384
H           -2.47116187159817       -1.58477982109855       -1.68293281394895
H           -3.14228030784556       -1.21401362045648       -0.09027058623359
H           -2.89452095925169        0.80849673642264       -1.53242476364085
H           -2.18311777328310        2.34491808722917       -1.07280271130932
H           -3.04596533077877        1.38860132915938        0.12979935824026
H           -1.02503897084875        3.01470792001799        1.77169056085490
H            1.20641869925251        5.14589896026551        2.48612425517294
H            0.74179384564405        4.33945833858220        3.98251471569879
H            1.36366303207127        5.99314971287693        4.01436016696029
H           -0.10131389225292        5.72160010054072        6.01586724101075
H           -1.28409150682146        6.93979332307361        6.47309805172808
H            0.17586265850178        7.41997007953120        5.61178163526132
H           -3.04634703104629        7.44328666311864        5.04201495641643
H           -4.88828587947792        8.00430056254338        3.74441263776322
H           -5.38983942003266        6.52865432454291        2.92310579124653
H           -4.77976220258376        7.90139777958727        1.99210007403645
H           -4.43355986540233        5.63949949959024        0.85226997475669
H           -2.93783105704541        5.17018833390594        0.06215024282315
H           -3.40674761574698        6.86721656069289        0.10352962238500
H           -0.64933685878027        7.63140400782708        0.66738965617996
H            0.29718168333070        8.88117202874124       -1.19440032767847
H            3.52480490528823        8.32646499730668       -2.05927038647435
H            3.08479512490502        9.36590939081549       -0.70682944164635
H            4.38847332562140        9.83276683651346       -1.80439494284521
H            3.36152218895782       11.89910740510969       -0.76605751201036
H            2.99486896056471       13.32369680254285       -1.72944092317389
H            4.31949209009933       12.26433137891281       -2.20574431854060
H            1.44667301957375       13.19160197989989       -3.46103659422265
H           -0.11201557128016       13.22221817204711       -5.18128175823915
H           -1.39761699839213       12.11856867367334       -4.69982202556016
H           -0.40547448510096       11.76369443436912       -6.11900452647487
H           -1.36697156518874        9.71384420512791       -5.06505783732788
H           -0.51140364028803        8.23363345350641       -4.67083649724689
H           -0.02383676162784        9.17482318250186       -6.07866439135617
H            2.51721045762003        7.71412911245816       -5.24313989148435
H            0.17095843041327        5.30699961599451       -5.75809453355972
H            0.09154844877747        3.57977141940198       -6.09415870882301
H            0.01594089431836        4.75062059994140       -7.41542645316396
H            0.94199593645244        2.53513023242216       -8.24272353922833
H            2.33705240646059        2.46756767674004       -9.31083732564401
H            1.26980407884886        3.86875734861040       -9.35498539479864
H            4.39445641780071        3.28801418905311       -8.59622273749683
H            6.51624587606994        4.02410824990478       -8.00203280652094
H            6.69376073979649        3.64817149101464       -6.29019270981755
H            6.69688843953769        5.32903383685104       -6.83730517013552
H            5.93445013192181        5.09775719486488       -4.48297853018326
H            4.50995754113585        5.81579519904675       -3.75265129581567
H            5.36719229801082        6.68031717250284       -5.02684491174697
H            2.14001011352690        3.09700627160188       -4.13915441317280
H            1.19842604596928        1.84797892355178       -2.27491650046775
H            2.20486852342513        2.55780163240879        0.87711370596337
H            3.15387020117772        1.53304459044336       -0.19647402190463
H            2.97254717572577        1.11180813324711        1.50971729616722
