42
 energy: -8.044327926688 gnorm: 0.000866782998 xtb: 6.5.0 (97a52f5)
C            2.45260197468727       -1.58339321649385        0.08867681471614
C            1.20365523497393       -0.76910596844928        0.04523734408698
C           -0.02687119114275       -1.40503058116726        0.01374690525651
C           -1.21997418268742       -0.70152532168064       -0.02038148633959
C           -2.51258939571533       -1.44517508032473       -0.05293506239472
C           -1.18667827110144        0.69099702313099       -0.04426961669054
C           -2.45455009003390        1.47600596618897       -0.08705874045400
C            0.05037732576518        1.35563436241430        0.00863995025390
C            0.09137654737830        2.84284869919891        0.00963666958651
C           -0.11631604597609        3.56209422561378        1.19542303082882
C           -0.07836915454934        4.92980497704923        1.19773681294129
C            0.16796815155053        5.63953442285811        0.01653536031104
C            0.21280367886113        7.06184779824703       -0.02068766846881
C            0.43948431183563        7.72022205917198       -1.16984657810738
C            0.49858732213044        9.20054551057156       -1.20022187412776
C            0.66509198171090        6.96944539028951       -2.40920583185291
O            0.88679848632922        7.59205162342604       -3.44088024488320
O            0.62358692108046        5.58760231829300       -2.38416690910194
C            0.37736341200291        4.93644725344779       -1.18322920834861
C            0.33465170310807        3.54021968351993       -1.15887238694081
C            1.24838798753796        0.62302809353860        0.06250390588307
C            2.55938983575105        1.33365442309600        0.10963740455452
H            2.25384355737015       -2.62736493433477       -0.15503323798670
H            2.90114120857456       -1.55471612553642        1.08205178652125
H            3.18668769151033       -1.21527797160847       -0.62832931652847
H           -0.05702255934189       -2.48003543518092        0.01713196036221
H           -2.37003971491809       -2.49859358369563        0.19019473469511
H           -2.96704470612405       -1.39229534553820       -1.04276685050864
H           -3.21885683396131       -1.03670124626732        0.67041158209763
H           -3.19350516941171        1.00322882310241       -0.73366831008492
H           -2.28636004722590        2.48063420637009       -0.47490860709349
H           -2.88466412740503        1.57028979701674        0.91045167971975
H           -0.30617074807544        3.02004524679406        2.10568937905405
H           -0.23800671448210        5.47440770847520        2.11227459449278
H            0.06258675435587        7.61420729878923        0.88946557362213
H           -0.33350771951496        9.63944617816369       -0.64792704538978
H            0.45104294059508        9.56800549912537       -2.22577192605243
H            1.42837221014712        9.55974756823935       -0.75755237903651
H            0.49565863908949        3.00314646856439       -2.07489344535409
H            2.44191485683193        2.36780271421753        0.43356947244664
H            3.02955297101969        1.34473431459320       -0.87409925085352
H            3.24393096747076        0.85433515677118        0.80954101517363
