112
 energy: -21.825635188003 gnorm: 0.000887795643 xtb: 6.5.0 (97a52f5)
C            1.80586043869568       -1.35478139247835        1.75598115002501
C            0.88227503238365       -0.59999457108657        0.86037925228273
C            0.00027391092817       -1.29529227651949        0.04670025487220
C           -0.88314023911803       -0.64968229522661       -0.80548660470661
C           -1.80549944719940       -1.45602967942974       -1.65627163978391
C           -0.87102312215176        0.74154996026199       -0.86712587640441
C           -1.79073630479328        1.45820824372205       -1.79534739824790
C           -0.00374636677218        1.45288647951864       -0.03114342276192
B           -0.01047263318664        3.02437345790990       -0.07325572491798
C            1.33661219476851        3.80879237146213       -0.18055189529998
C            2.28979876009306        3.42478492535631       -1.13561602965594
C            2.02434008536310        2.27963906261392       -2.05099385591071
C            3.49194870351190        4.10890512361324       -1.20949852261011
C            4.54694415396493        3.71387843169907       -2.18263181940274
C            3.72247280292674        5.21404421640439       -0.36754807087422
N            4.96215667365337        5.95160076167625       -0.46987067223296
C            6.03181562014446        5.69158190944887        0.41423209166847
C            5.93129640230027        4.71011560053756        1.39535129234522
C            6.97494215281039        4.45909734939474        2.25587216814020
C            8.14753449699005        5.18705425360049        2.15136697782091
C            8.27173368870012        6.15939365650742        1.18735617633396
C            7.22741078431675        6.43329519978033        0.30144907820739
O            7.39465307865011        7.41979292577171       -0.65958156995738
C            6.34053372871103        7.66658520856172       -1.52707720596093
C            6.47855308711579        8.65309706047733       -2.50596874164487
C            5.45637059733843        8.93059510163858       -3.38250802308670
C            4.26538364638662        8.22972517220319       -3.30405947543123
C            4.10440933069988        7.25336259772477       -2.34833596508457
C            5.12553430102994        6.95213974570768       -1.45254179821959
C            2.74807529530816        5.60872038566687        0.56952509198659
C            3.02070107535836        6.78693940916894        1.43763545817920
C            1.56898742359245        4.89073813598759        0.68199105822740
C            0.54875302795725        5.28385729558846        1.69424136823162
C           -1.36734295390122        3.79770152717311       -0.01959536168415
C           -2.32085904683445        3.45254756639455        0.94995892284277
C           -2.03510903123455        2.38017662225983        1.94399847684069
C           -3.54328493049229        4.10371851200743        0.96353215304782
C           -4.59924482301198        3.74419390000061        1.94916443825557
C           -3.79518642350742        5.14064794093423        0.04459767520192
N           -5.06576082198169        5.83103319291780        0.06739464348293
C           -6.10889216177350        5.44621744944044       -0.80283987641572
C           -5.95089528577780        4.38523333261749       -1.68909531472336
C           -6.96951126722778        4.01058020031720       -2.53448018896691
C           -8.17385481701019        4.69234197188555       -2.51046675974106
C           -8.35432672400323        5.74263289010621       -1.64177806696246
C           -7.33655153406239        6.14199755214731       -0.77279141942021
O           -7.56040900433787        7.20402180335892        0.09129226778621
C           -6.53195060578029        7.57350483821749        0.94597788616943
C           -6.72704361564075        8.63850549734658        1.82807882611755
C           -5.73231430405386        9.03772814583250        2.68904457667311
C           -4.51262747612631        8.38331891625148        2.69163545709244
C           -4.29543149897748        7.33127121652521        1.83212906915324
C           -5.28744383743334        6.90756138398835        0.95343959648185
C           -2.81791027447057        5.50395234630070       -0.90212657607828
C           -3.11332357636519        6.61282637054402       -1.85036115371306
C           -1.61674031664101        4.81599845009931       -0.95208743517871
C           -0.59302738806007        5.17270578318851       -1.97443373876783
C            0.86683313516942        0.79250845945444        0.84254058546747
C            1.78733487483168        1.56371466558513        1.72528159325393
H            1.85563501045502       -2.40804062746206        1.47655160765333
H            1.47192625553709       -1.30271315213608        2.79295780909629
H            2.81958431635750       -0.95576607898855        1.70225101771482
H            0.00181085273477       -2.37051745103320        0.07710775904674
H           -1.84901873524504       -2.49309887400833       -1.32070225193662
H           -1.47518785278597       -1.45793713199871       -2.69568405823829
H           -2.82095919915753       -1.05959256928817       -1.62043885195247
H           -1.94533556395161        0.89796382135330       -2.71746858387940
H           -1.38873445430474        2.42944199422101       -2.07873374020619
H           -2.76314303332785        1.62079374686044       -1.32955122854281
H            0.95609978404116        2.13014552568262       -2.19743865774531
H            2.44052020737383        1.35562148876576       -1.64827368550711
H            2.45895496640532        2.44717765959537       -3.03659567273752
H            4.71979343364725        2.63685656339045       -2.16154840523207
H            5.49512536636271        4.20120472467655       -1.95121615450266
H            4.26815474113429        3.99880471005950       -3.19815751879808
H            5.01903586552334        4.14564293051151        1.47340287488990
H            6.88002405256454        3.69610728347229        3.01108149677928
H            8.96461245171139        4.99040598706062        2.82620786713733
H            9.17987673938161        6.72865143226143        1.09751663947460
H            7.40670917897673        9.19406189957830       -2.55818157210388
H            5.58178949081473        9.69577496484664       -4.13113756080581
H            3.46474361924117        8.44915313168657       -3.99128552094388
H            3.17966521023936        6.70777297429729       -2.28399858075253
H            3.86783897838323        7.36191505598047        1.06218852703148
H            3.25771519830586        6.47522642098882        2.45550077479554
H            2.16153271726385        7.45794307795937        1.47360139328139
H            1.01414130748622        5.65493542097228        2.60767545629261
H           -0.07349596523012        4.43663410021305        1.97781182654059
H           -0.10510636856510        6.06473623659660        1.30383067492522
H           -0.96418525945401        2.25676904054444        2.09615659477247
H           -2.43876797014765        1.42357368177052        1.61055558322179
H           -2.46933389155062        2.61246119496871        2.91670086743294
H           -4.73088371832904        2.66348208924022        2.01017880577385
H           -5.56049441848645        4.17435451513316        1.66690823994132
H           -4.34894174986733        4.11758143401013        2.94257093953100
H           -5.01405047750451        3.85701057194943       -1.70476872168646
H           -6.83030078733300        3.18666285030626       -3.21513663972506
H           -8.97146307453752        4.39861946525344       -3.17323121923678
H           -9.28723939063603        6.27723328730767       -1.61516728255477
H           -7.67731755080800        9.14221563365949        1.81790556284634
H           -5.90192301271641        9.86198556663192        3.36247326332391
H           -3.73351943687930        8.69847959378300        3.36632473154635
H           -3.34843262712153        6.82118167437220        1.83087977689148
H           -3.98817806262138        7.17953290851066       -1.52958302049255
H           -3.31765670941058        6.22755597191354       -2.84996035552291
H           -2.27766130786594        7.31106674074328       -1.91346454364795
H           -1.05445746206666        5.49042641005051       -2.90956412651044
H            0.04384019109747        4.32162126322649       -2.20965976690765
H            0.04579083833324        5.98189999579626       -1.61848216746530
H            1.38921383537615        2.55311217203807        1.94396556824645
H            2.76190546041908        1.69137350682970        1.25265917754437
H            1.93639933899615        1.06296080369849        2.68228766957458
