91
 energy: -17.072696136010 gnorm: 0.000946753203 xtb: 6.5.0 (97a52f5)
C            1.73142709482634       -1.39372058091459        1.62069093502072
C            0.79448529545339       -0.62220722898874        0.75360086528242
C           -0.12389765144371       -1.30085652406810       -0.03375734718604
C           -1.02037849153659       -0.63846762581755       -0.85906981091544
C           -1.98176987382895       -1.42670129078060       -1.68321078655942
C           -0.98504830173938        0.75236317903342       -0.92060884254635
C           -1.91898211337064        1.48484809503435       -1.82208336658461
C           -0.08066349699861        1.44740359611675       -0.10985598163488
B           -0.06510263212740        3.01835013005104       -0.14977141587451
C            1.29972417610891        3.78041419777211       -0.30424556839021
C            2.19958303750906        3.38810406621762       -1.30095473259108
C            1.86944158371919        2.26624521263917       -2.22452994213255
C            3.42187446597333        4.04668621655145       -1.40795543134794
C            4.42616863477828        3.65459940906911       -2.43879650602767
C            3.69445420570172        5.10662202069379       -0.55584282485191
C            2.79738528271688        5.52066860537879        0.41781642883251
C            3.15103968226639        6.66788846349809        1.30314472234221
C            1.59330667734924        4.83643777796206        0.56513945866922
C            0.62127271344690        5.24496555417697        1.61855392343475
C           -1.40159421431869        3.81305177533327       -0.04678545308055
C           -2.33311847401716        3.46470932840142        0.94518243139233
C           -2.03009873198897        2.38142876536348        1.92215629455512
C           -3.55039811265283        4.12154286458240        0.99517506625832
C           -4.58420672428934        3.75648814758533        2.00235933895677
C           -3.82010774607340        5.16862684662741        0.09190177361477
N           -5.09572707864843        5.85088629534674        0.14154965843398
C           -6.14623957442290        5.45479844257548       -0.69773041767152
C           -5.99051896155196        4.40357940290523       -1.60481841043341
C           -7.02217247386204        4.01432031773006       -2.41915033346935
C           -8.24768790300475        4.66712716887359       -2.34965718794519
C           -8.42852489436963        5.69996653780124       -1.46843184509451
C           -7.39129507574892        6.12069628004485       -0.62213430092168
O           -7.61359925770388        7.16187141315071        0.25488782320752
C           -6.57269058528906        7.54516116266918        1.07488668066407
C           -6.76256297260047        8.60087691624081        1.97945919153156
C           -5.75270333895844        9.01260320371467        2.80804028707824
C           -4.51282305646111        8.38512097144611        2.76403904655909
C           -4.29826918774219        7.35005705317215        1.89120499632692
C           -5.31088299848125        6.90799505414946        1.03621410091783
C           -2.86275749725778        5.53965897303650       -0.87301660907884
C           -3.17744201729854        6.65872817651302       -1.80296907286202
C           -1.66831622870911        4.84540776531930       -0.96120746107363
C           -0.67207436497793        5.20238075537781       -2.01001479123143
C            0.80348009037891        0.77041125384346        0.73704857556289
C            1.76242358140458        1.52393311159011        1.59331458287917
H            1.74866214223906       -2.44894594479628        1.34471866328679
H            1.43454330318316       -1.33026263371738        2.66855558545175
H            2.75140862022234       -1.01700897225800        1.53057019546000
H           -0.14113460945254       -2.37597326317213       -0.00365422738360
H           -2.03934898703986       -2.46162532265943       -1.34312907946384
H           -1.67843775263521       -1.43845049466829       -2.73099539648125
H           -2.98721094971811       -1.00794471823587       -1.62298585098672
H           -2.08803620147067        0.93926005370818       -2.75098933888295
H           -1.52175882450241        2.46089803063125       -2.09610829998606
H           -2.88443709609217        1.64012371555812       -1.33838549964582
H            0.79265224767246        2.13781105667625       -2.32213731017248
H            2.28697348390574        1.32686816005895       -1.85987904298613
H            2.25980235283211        2.44592116829737       -3.22675260674201
H            4.55487363979989        2.57122855300926       -2.47150717461498
H            5.40328621949329        4.09256045913197       -2.22693314389173
H            4.11882320193835        3.99247756990245       -3.43017133973261
H            4.63174684425254        5.62519655177114       -0.65411201262749
H            3.99859162285833        7.22833538957200        0.90610774931513
H            3.42180293307397        6.32061376440076        2.30120983871047
H            2.31640035983843        7.36386864614751        1.39784549074669
H            1.12885821225680        5.59869771314319        2.51642660142127
H           -0.01040715419151        4.41040530758276        1.91939523125821
H           -0.02888311389112        6.04361802172147        1.25860398252469
H           -0.95667923470219        2.25765580750282        2.05550793492716
H           -2.43836448977109        1.42811885850576        1.58441706620130
H           -2.44830068404786        2.60126859751444        2.90482416582516
H           -4.71654284297547        2.67538516449244        2.05862958986941
H           -5.55130163223751        4.18987228172160        1.74577778956887
H           -4.31041556437681        4.12232977065694        2.99266289374100
H           -5.04165816195502        3.89939409540404       -1.65571190883955
H           -6.88430229628108        3.20193608602189       -3.11391643857010
H           -9.05689003014562        4.35767842522271       -2.99104716126492
H           -9.37409954135899        6.20908442978765       -1.40753766921389
H           -7.72432212791352        9.08179407132692        2.00674273802488
H           -5.91796733995786        9.82543205317324        3.49642811098773
H           -3.72070267859019        8.71349344207134        3.41705713710821
H           -3.33986596419048        6.86294113458570        1.85452952597641
H           -4.03241224337956        7.23456936134090       -1.44733102734762
H           -3.42288531090403        6.28305142101670       -2.79715511362978
H           -2.33581694735572        7.34675930110636       -1.89201104372112
H           -1.15729745864586        5.54283588305003       -2.92501086030398
H           -0.05797655733119        4.34470401624123       -2.27949368689587
H           -0.00856262288692        5.99509381950971       -1.66223801541252
H            1.38399385465132        2.51636590356800        1.83215257124903
H            2.72202859984738        1.64365969319641        1.08900188118228
H            1.93812828971956        1.01524231415527        2.54122076395171
