63
 energy: -12.252297912794 gnorm: 0.000694808467 xtb: 6.5.0 (97a52f5)
C            1.38912980637123        0.29096251809605       -0.47190272176483
C            2.60591617687426       -0.05355862589709        0.32275532487704
O            3.11214389142790        0.77542176230039        1.04693300829224
C            3.18407460753001       -1.40376797119292        0.21778377777526
C            2.61524552329864       -2.41314412588328       -0.60839954502301
C            3.18026728748437       -3.63781282663610       -0.70115415177874
N            4.32625736682485       -3.92164821779562        0.01950183378502
C            5.13239454476835       -5.04955587552541        0.10151239295882
C            6.18887281507832       -4.80012800215753        0.96365833169143
C            6.05792285413154       -3.49936747677164        1.47310464550576
C            6.93100549630288       -2.85991409723704        2.46289218465112
C            6.41569472639318       -1.99782534169523        3.43167977712718
C            7.23626812585348       -1.41856474609450        4.36976904439798
C            8.60187220068042       -1.67997165746691        4.37735318652701
C            9.43888743815119       -1.09030165978579        5.33676696752603
N           10.12651077671537       -0.60278682465019        6.13533433012354
C            9.12010209738620       -2.54270925276303        3.41816811238804
C            8.30082998427190       -3.12381339919678        2.48025601695125
C            4.89407720190908       -2.96052028485086        0.85473741565602
C            4.31548730396189       -1.68680809145669        0.93845303324196
C            7.04450391010056       -6.03169795370492        1.05798974629932
N            6.32874193607318       -6.97792770514732        0.16609451098181
C            6.79411986347888       -8.31620528182438       -0.21448730926700
C            7.54232485692614       -9.02744550866912        0.90317602099434
C            8.00832685972069      -10.42696988695186        0.52827900863796
N            8.75780746146869      -11.06831657265888        1.59160025794653
C            8.77897344697224      -12.44433709393527        1.73770888293565
O            8.08568330711097      -13.15115510857852        1.02628042229492
O            9.62081404201393      -12.91003256357503        2.71599828022791
C            9.64801256630474      -14.35523195701635        2.87070600776166
C            8.25627634063522      -14.86704621712670        3.26426644541274
C           10.12745264318912      -15.01532665646758        1.57124063193296
C           10.64374944269548      -14.66998600183020        3.99792274960984
C            5.20096325130770       -6.41487896649706       -0.43219561935118
O            4.43709290310290       -6.93168171796813       -1.22938254093580
H            1.09868238501973        1.32237954223141       -0.27595912950492
H            0.54916496287857       -0.34904052318281       -0.20323868888897
H            1.57718532704272        0.19411438200957       -1.54087312824226
H            1.72611174982247       -2.19301291931427       -1.17196830112523
H            2.77032528630643       -4.41095130404560       -1.32638783698215
H            5.35608307536839       -1.81524883626080        3.46106227837903
H            6.82791069212351       -0.75819949178335        5.11581714452381
H           10.17661586206141       -2.75034401804208        3.42052310074285
H            8.71547009232956       -3.78183127261823        1.73718533391718
H            4.76307278421066       -0.91896420666367        1.54122055373803
H            7.08451828847356       -6.41797284068923        2.07989472813105
H            8.05812381516233       -5.85648363341879        0.68833142762631
H            7.42597127140315       -8.21516880947581       -1.10119738146175
H            5.91978558309649       -8.89739607158434       -0.52182897381911
H            6.90728711345318       -9.08062319723116        1.79401100755775
H            8.40783576038463       -8.42653668181952        1.20148516089095
H            8.63346661184894      -10.40036852942145       -0.37120383327856
H            7.15175768339669      -11.06602682622103        0.28617840185871
H            9.39393157021287      -10.48252745078267        2.12782152069557
H            7.53518708746697      -14.64874132662810        2.47888810043226
H            7.91649779717904      -14.37740633591670        4.17494354617853
H            8.26455297149036      -15.94269695936465        3.43283721388776
H            9.43516877545107      -14.80237944038437        0.75896489370371
H           10.20292011406434      -16.09584798269918        1.68229557837152
H           11.10431011454608      -14.62818847341258        1.28774585400349
H           10.33107277247150      -14.18888875306057        4.92276475154312
H           11.63207030109457      -14.29084939636321        3.74483546795920
H           10.71872709513050      -15.74200525523618        4.17348074876735
