72
 energy: -13.133074508883 gnorm: 0.000462751302 xtb: 6.5.0 (97a52f5)
C            2.06096473970537        2.68709402338330       -1.52638378906239
C            1.10132013693451        1.59784236271432       -1.19463750714570
C           -0.20031214202859        1.88987811650994       -0.81882187257468
C           -1.09786913334251        0.89713781922251       -0.47575041235665
C           -2.48553218389625        1.26064882834963       -0.07428724775924
C           -0.69010148773918       -0.45202059607136       -0.52269730706700
C           -1.64439352257888       -1.53562934252022       -0.18253412546309
C           -1.53713503943057       -2.27072719222221        1.01573721064595
C           -0.62115162074724       -2.17797469002930        2.07440950091839
C           -0.96187014629408       -3.14997633142724        3.02044697315895
C           -0.26915797673632       -3.39498752774296        4.25746980157065
C           -0.60811964166981       -4.34644527925092        5.13504649552526
C            0.12416523629325       -4.55646539426624        6.37993970931057
O            1.07047574802918       -3.84069230185004        6.65928330802157
O           -0.34706628243364       -5.59149628957993        7.15473078969580
C            0.37749406040758       -5.80816558994773        8.39671431705696
C            1.84234665078609       -6.15343119070141        8.10002511190861
C            0.27958614475957       -4.56328847525567        9.28740301118379
C           -0.28623336756207       -6.99503498621351        9.11205004800491
C           -2.10688315181733       -3.83937699375749        2.53183363531732
N           -2.40987444736170       -3.29295996679543        1.36153992230330
B           -3.60159912994356       -3.70692374697243        0.48528985802114
F           -3.44378855085467       -5.04955425414653        0.16477487951629
F           -4.76232020882257       -3.46911628223412        1.21152842501047
N           -3.63409233797277       -2.87177821064598       -0.81313300172428
C           -2.70033097801736       -1.89195272994133       -1.04026482671068
C           -3.00783169305886       -1.33649075547449       -2.32502072265357
C           -4.09513583219276       -1.97893190101383       -2.81814554206932
C           -4.52240990841603       -2.97087200242102       -1.87000419028485
N           -5.58886187768111       -3.80447689954709       -2.02578378195625
C           -6.53427544561281       -3.71754746473052       -3.15278181093037
C           -7.91160972215421       -3.30116600392354       -2.63635796897312
O           -8.37645863641384       -4.18670908195231       -1.62168420702126
C           -7.46756659809666       -4.28666409013398       -0.52985326585831
C           -6.08211112051387       -4.72775229534106       -0.99808650838930
C            0.63413408209623       -0.75615534162799       -0.90064307075868
C            1.11344525369848       -2.16557706647941       -0.94912266631669
C            1.50238101717233        0.27142936455872       -1.21519167620391
H            1.54353658241891        3.55913434903921       -1.92734218277420
H            2.78375186743508        2.35923431851235       -2.27409263386420
H            2.61176662649180        3.00021252188994       -0.63902247637163
H           -0.51734615779023        2.91707795718361       -0.78790089038108
H           -2.51830446492048        2.25343317039092        0.37531413077224
H           -2.88045466350787        0.55532162061453        0.65740308514000
H           -3.15202794195614        1.25983227893084       -0.93695350700612
H            0.19472947151850       -1.48053891311693        2.14453149416081
H            0.57630527353408       -2.77150087768283        4.48782819999241
H           -1.44332294603052       -4.99088461920446        4.93849691597547
H            2.33404510990403       -5.32520359102304        7.59400439080677
H            1.90266404209022       -7.02479732159097        7.45072100427461
H            2.38953276957696       -6.36782928949855        9.01669687774078
H            0.74518437576684       -3.70901616006977        8.80031991615191
H            0.77462257039759       -4.72393028192480       10.24387317516956
H           -0.76271781096117       -4.31328146609749        9.47624810543712
H           -0.24422019421839       -7.88501914605082        8.48700595570956
H           -1.33389478655416       -6.77850606080319        9.31218651601157
H            0.20786313122523       -7.21358126494577       10.05752662036142
H           -2.64862546828787       -4.64553342615359        2.99550137273368
H           -2.45672121267271       -0.54921884013112       -2.81040966915903
H           -4.55303966275753       -1.77289903516216       -3.76959076260296
H           -6.59105837713231       -4.70246517006777       -3.62627947731187
H           -6.16324489654248       -3.02679390487026       -3.91455181096100
H           -8.66256093047350       -3.29016703278529       -3.43697980599368
H           -7.87788808801470       -2.29295966272268       -2.20752944173125
H           -7.89610978833680       -4.98797092019600        0.19786633275461
H           -7.41770163429513       -3.30442693247940       -0.04530658154576
H           -6.12502825268187       -5.73295794898049       -1.42795717842566
H           -5.37394714235729       -4.76920446915942       -0.17044440618536
H            0.29222437927108       -2.85637067347224       -1.14125169489710
H            1.57863831415489       -2.44925654631379       -0.00480934759678
H            1.84984576538057       -2.30235958313553       -1.74153581508445
H            2.51560325383843        0.03612668052364       -1.48852390719898
