78
 energy: -14.251137421823 gnorm: 0.000460961062 xtb: 6.5.0 (97a52f5)
C            2.52062969188518        2.82165646495246       -0.96195225701356
C            1.50135489854190        1.76507286710858       -0.71350955401219
C            0.21978129513488        2.09640530813216       -0.30318438023487
C           -0.72998537266666        1.12941242921919       -0.03430828129949
C           -2.09409878595790        1.53764972366342        0.40394858507819
C           -0.39654873697948       -0.23049934566682       -0.19411885275319
C           -1.40291893495458       -1.28555506232598        0.07609878530611
C           -1.33673200507587       -2.10537376673297        1.21684261644963
C           -0.41183562482059       -2.11760201088142        2.26718248496288
C           -0.79211325532174       -3.12403154805194        3.16647759436846
C           -0.09373996169764       -3.45523353110467        4.37530427128006
C           -0.45730767269972       -4.42257265918672        5.22793959881535
C            0.30626248717545       -4.70972858192139        6.43795277792423
O            1.30342612058316       -4.05550962801357        6.69634733637099
O           -0.18823944315488       -5.73500473888658        7.20610279057034
C            0.58146929817231       -6.02816461491121        8.40468248727886
C            2.00702441116924       -6.44958306146228        8.02562223361958
C            0.60259504340282       -4.80539725344138        9.33067451372772
C           -0.11591821877002       -7.19388972113588        9.12254176938661
C           -1.97442295186909       -3.73390896293857        2.65668032554229
N           -2.26542743666771       -3.11538510318631        1.51976945709394
B           -3.47883155197150       -3.43729804958343        0.63187413487700
F           -3.38190410453750       -4.74945658330572        0.19219470465324
F           -4.64056972524383       -3.22394459727765        1.35965926178146
N           -3.47050942833262       -2.49817946216880       -0.58559795179332
C           -4.37161104585564       -2.50739988164850       -1.55909899980831
C           -3.98957475842673       -1.49504900901830       -2.48531526215179
C           -4.68891642638482       -1.15907636963179       -3.69243489157737
C           -4.30344874767423       -0.19472009840180       -4.53931291844916
C           -5.04067044684891        0.12308690011905       -5.75749720377496
O           -6.04682407613626       -0.50373410977528       -6.04576221310805
O           -4.50365542444771        1.14855288285061       -6.49694130603874
C           -5.23155116974502        1.47947709177692       -7.71114965602726
C           -5.25556556780066        0.27207195927399       -8.65670185127062
C           -6.65619079707610        1.93039205731202       -7.36525435600927
C           -4.48417760313023        2.63863365285405       -8.38862830970757
C           -2.81696471420342       -0.89718091783464       -2.00057523488720
C           -2.48185302649638       -1.52196336998634       -0.79411197579364
C            0.90396697722362       -0.57533451183888       -0.61329973318796
C            1.30130591010458       -2.00063077798914       -0.78654879278821
C            1.82705263458455        0.42528039057630       -0.85030074009825
H            2.05005862860290        3.77152720977383       -1.21722504948562
H            3.17749137221130        2.54566838001011       -1.78739663097960
H            3.13772747771836        2.97833175354302       -0.07678684124417
H           -0.04030589573297        3.13314909209253       -0.18485500295888
H           -2.05686925739129        2.44307249724450        1.01027579149504
H           -2.56573506712531        0.75973344485402        1.00473970728535
H           -2.73466987015547        1.73405815393601       -0.45606422445120
H            0.43885738736165       -1.46710635169264        2.36522746215238
H            0.78776497451711       -2.88507284767277        4.60956123915710
H           -1.32864859174083       -5.01819138151447        5.03471102279422
H            2.51921659995966       -5.63941208403491        7.51072288593419
H            1.98377236273921       -7.30854814683774        7.35771174604796
H            2.58700791173196       -6.71452309732306        8.90827679700432
H            1.08517144074353       -3.96350195867258        8.83857557375057
H            1.14289576328347       -5.01876597168479       10.25162954474676
H           -0.41177015709825       -4.50613788506423        9.58736306654762
H           -0.15965238654391       -8.06611077535886        8.47310420855376
H           -1.13693816638112       -6.92148497646903        9.38290438677567
H            0.41141217130173       -7.46878827177710       10.03476784657562
H           -2.54579653277580       -4.53762114924691        3.08725506076113
H           -5.22060965850423       -3.16651701140388       -1.61639833394009
H           -5.57806588165825       -1.71626196287431       -3.92790277464258
H           -3.42243803497336        0.38286119650756       -4.33556744658109
H           -5.77527151974140       -0.56388083950178       -8.19312984799494
H           -4.24166524217840       -0.05011733393293       -8.88610637450476
H           -5.76042739417404        0.51378582262090       -9.59067992174291
H           -7.20214492979975        1.12536993724044       -6.87771270833978
H           -7.20420851744291        2.22332170443165       -8.25941794889851
H           -6.63056699080050        2.77823325573805       -6.68331994430017
H           -3.46233713031421        2.34501843538080       -8.62139063340679
H           -4.43918666858180        3.49937940832162       -7.72403095638145
H           -4.97568598290999        2.94072136689865       -9.31214769981205
H           -2.26240037302179       -0.10189033806814       -2.46490854303983
H            0.43879384494618       -2.62679891317902       -1.01555221456139
H            1.76623089706513       -2.38641217627836        0.12087136524756
H            2.01405969638585       -2.11233060097738       -1.60402176517739
H            2.82391196746245        0.15812801546535       -1.15282384966941
