72
 energy: -14.934270601835 gnorm: 0.000775457015 xtb: 6.5.0 (97a52f5)
C            2.29157466740201        2.90088221308930       -2.30463798525647
C            1.31643474904387        1.88173240204986       -1.82677353730602
C            0.12708861344507        2.26590163950728       -1.22781336224771
C           -0.77725218070797        1.33658848561154       -0.74834290876299
C           -2.04604395805385        1.78481404836337       -0.10977080418308
C           -0.49183100743738       -0.03553346951714       -0.87792001064346
C           -1.45551092249899       -1.04837245658685       -0.37772501929253
C           -1.23217235267962       -1.74997480082423        0.81558632871871
C           -0.12648629921468       -1.66401113842670        1.70398332337312
C           -0.31742160486960       -2.57829509707516        2.70375553749035
C           -1.55201501446872       -3.25632584531008        2.48648835971932
C           -2.09019437738216       -4.31459252913179        3.31999948050205
C           -3.44035248200100       -4.72320658284838        3.21039481662380
C           -3.95347527750082       -5.71674430109368        3.97961263986554
C           -3.14375026969205       -6.38353796135153        4.92981983962568
C           -3.63741573626400       -7.42419659635152        5.74215707922700
C           -2.82532612587946       -8.04461594621023        6.64735389190136
C           -1.48764456242210       -7.65675719026164        6.78311822874000
C           -0.97720806803109       -6.65394729601792        6.01419637686446
C           -1.78937775538262       -5.98888268186172        5.06573415072106
C           -1.29249443995981       -4.95419275420638        4.25311669861976
N           -2.06914166543784       -2.72006869393978        1.33878170640340
B           -3.41243877777716       -3.04418339214674        0.64415250804183
F           -3.46526607337785       -4.41520017811075        0.41964169212817
F           -4.43742068891885       -2.58978328461445        1.46770298759802
N           -3.54786440257043       -2.32458671279232       -0.71832610984563
C           -2.60702103823727       -1.38543659960617       -1.10359162479240
C           -3.02321084107591       -0.91157218667649       -2.37705451671099
C           -4.17328183431480       -1.57042679139688       -2.71661533075950
C           -4.52199952657990       -2.47010850254124       -1.66800613312284
C           -5.66896259897538       -3.35676215610276       -1.66065404582347
C           -6.41047824853918       -3.59449807685056       -2.84687948339688
C           -7.48335800972876       -4.42828432516226       -2.85707393213989
C           -7.90004697562303       -5.08981693670373       -1.67640572828331
C           -9.00509479071819       -5.96433004735137       -1.64933133232912
C           -9.37435112138157       -6.58207611283651       -0.48893350658719
C           -8.66099854743822       -6.35732024761953        0.69425594639843
C           -7.58729269810676       -5.51815418631603        0.70408489683806
C           -7.17732462822979       -4.86236809841747       -0.47968549112970
C           -6.07531617895106       -3.99301474310578       -0.50477095182180
C            0.71408959987440       -0.43481773589872       -1.48522719174192
C            1.05991909185424       -1.87692326594365       -1.62403836567185
C            1.59743489880094        0.52883522120388       -1.93440635797070
H            1.78468707616869        3.81468564824011       -2.61666686856440
H            2.86065238447082        2.53077529643181       -3.15817924053703
H            2.99789927257435        3.16003329211151       -1.51522629203827
H           -0.09416972611547        3.31378200570260       -1.12961006830211
H           -2.00782620896063        2.84256757346011        0.15302136070990
H           -2.24066738838581        1.22315567033058        0.80472587722766
H           -2.89186462924734        1.63592963563270       -0.78187583725750
H            0.71554287595813       -1.00240079464016        1.59195959542347
H            0.35359102868382       -2.74338622763063        3.52948980888821
H           -4.06614981783946       -4.21495103323373        2.50294425400668
H           -4.98465187720612       -6.00751335309588        3.87715565342934
H           -4.66566841086286       -7.72452179413709        5.63788164043999
H           -3.21434337034541       -8.83946642388332        7.26222869125060
H           -0.85889851095083       -8.15736314941873        7.50106599568526
H            0.05185974076115       -6.35672608952372        6.11929656658373
H           -0.26150175758099       -4.67100024140145        4.35391591231247
H           -2.50327255402144       -0.18107336261225       -2.97317616026823
H           -4.73017790671584       -1.41990271009208       -3.62571125968791
H           -6.10343809648249       -3.11251868350902       -3.75804480790381
H           -8.02955945127172       -4.59969162730185       -3.76849808602712
H           -9.55494162138043       -6.13879174451188       -2.55801900143023
H          -10.22175229665426       -7.24781040423658       -0.48021315987614
H           -8.96523040594086       -6.85283897686803        1.60162496979847
H           -7.03761204872956       -5.34517041356803        1.61309678180600
H           -5.54114041934114       -3.80984509892674        0.40527640171092
H            0.16326541410125       -2.49398626016600       -1.68863619322176
H            1.64290283230811       -2.21948907807529       -0.76860514880836
H            1.64734250107643       -2.05527604292077       -2.52535143067547
H            2.52542283194143        0.22099929919404       -2.38263271425013
