72
 energy: -14.493822639183 gnorm: 0.000826370349 xtb: 6.5.0 (97a52f5)
C            2.78229076761234        2.49774690969472       -1.90969863472088
C            1.70542252481911        1.55648725987607       -1.49454311093850
C            0.58720971463243        2.01540687323647       -0.81666815615357
C           -0.40728797713207        1.15548581171944       -0.38970897499356
C           -1.59455486543585        1.69536834155142        0.32959754905468
C           -0.29329304924183       -0.22148579563393       -0.66087868427841
C           -1.35435800755599       -1.16185161300661       -0.22076807109921
C           -1.16313744876306       -2.03230501442211        0.86177476937179
C           -0.01612100300299       -2.18959727571057        1.68648939012064
C           -0.28236889094468       -3.18004555155789        2.59192918957545
C           -1.60240871824254       -3.66801463797981        2.37600758416035
C           -2.22988956043449       -4.72563978039907        3.13915499472972
C           -3.60327273626321       -5.07359079550576        2.98320180594380
C           -4.18776073289280       -6.08900651137233        3.68457887416784
C           -3.42770355749266       -6.80693777009852        4.57957315856403
C           -3.33974971567451       -7.80605397624495        5.49683955928425
C           -2.18928237148070       -8.12394370581776        6.18242528911007
C           -0.85164388216727       -7.62066779705111        6.20787064038971
C           -0.08355426497273       -6.63588013050008        5.60801170571127
C           -0.35810211391663       -5.67432897518922        4.65857955069679
C           -1.53030803309799       -5.44917537940929        4.04905956837924
N           -2.09401506382000       -2.94735692024304        1.32234646040335
B           -3.49030579717481       -3.03906368843774        0.66588867065591
F           -3.68468985492186       -4.34694399180053        0.23468126518925
F           -4.42599977568013       -2.63352227873068        1.61159041994561
N           -3.61626974652219       -2.10806558185169       -0.56313576260261
C           -2.58067877933235       -1.25160294483040       -0.89511529879970
C           -3.00351654407157       -0.55721262597145       -2.06049568723297
C           -4.24992656108873       -1.01237550772015       -2.39355916710828
C           -4.65366712260966       -2.00023491540876       -1.44925317850571
C           -5.89693684509675       -2.74511266320899       -1.48583465624217
C           -6.73591646836829       -2.70093230923569       -2.62938919844417
C           -7.89851733903354       -3.40225459432686       -2.68383217060871
C           -8.31462638658014       -4.20423411215850       -1.59357321188398
C           -9.51235108624987       -4.94694559174778       -1.61446837163085
C           -9.87727041945030       -5.70770648644903       -0.54091235835470
C           -9.06738436549902       -5.76266966716888        0.59935272727561
C           -7.90267342102172       -5.05725938219579        0.65358476040197
C           -7.49440716001486       -4.25975267472352       -0.44041115371429
C           -6.30128633529169       -3.52046731239055       -0.41762074359732
C            0.83775932011268       -0.69577395095029       -1.35285610253944
C            1.00013091238219       -2.14624318682478       -1.65009565613151
C            1.81824017835781        0.19754757992778       -1.74190721078949
H            2.37543961440781        3.48219909674719       -2.14348079733249
H            3.30137234257876        2.13528239507713       -2.79767705165858
H            3.51864737212804        2.61749114359699       -1.11430251199028
H            0.49440779870055        3.06732996332178       -0.61254308530293
H           -1.33838762711422        2.59132602249924        0.89602077563296
H           -1.99487860445422        0.96483968365519        1.03319907331970
H           -2.38732061233286        1.95565410460458       -0.37234988872740
H            0.89608275594999       -1.62357724980713        1.60438821133289
H            0.39130709876696       -3.53237702303843        3.35423622665429
H           -4.19111689741195       -4.49955656095944        2.29347917612617
H           -5.22700999740996       -6.33386839201535        3.55172531550947
H           -4.23533289043910       -8.37426715874679        5.68720621077152
H           -2.33097637604784       -8.95178187628556        6.86604726674247
H           -0.25789051099444       -8.18752694872826        6.91793270845290
H            0.94521651224934       -6.59889106539106        5.93854148298655
H           -3.50786223126793       -4.59924363966420       -1.99027731534559
H           -2.42886870152988        0.18432533047483       -2.58886516543763
H           -4.83218507949960       -0.66931450320837       -3.23165265422966
H           -6.43382013969654       -2.10799535532981       -3.47418449248162
H           -8.51888979878046       -3.35846447351989       -3.56221940276550
H          -10.13678699733063       -4.90578799372811       -2.49010510360591
H          -10.79537372930250       -6.27130859170171       -0.56891741753597
H           -9.36945917465539       -6.36776175103317        1.43838204294511
H           -7.27865992387707       -5.09909582480624        1.52945288918772
H           -5.69294740857640       -3.55208246223140        0.46268903131257
H            0.03284981743846       -2.63561087708209       -1.76734133291315
H            1.53652670669213       -2.64947159220905       -0.84518768432653
H            1.55936157194052       -2.29833901170106       -2.57386618974413
H            2.68971768504569       -0.17057306799392       -2.25359268998868
