65
 energy: -12.164473881939 gnorm: 0.000651329059 xtb: 6.5.0 (97a52f5)
C            1.39838543257544        0.35488295990111       -0.13166972104756
C            2.69721414897117       -0.34135153729979        0.11065151938752
O            3.24609965318691       -0.24164976603614        1.18559045519912
C            3.30735239035576       -1.14464165835938       -0.96185591814769
C            2.70202350392762       -1.29369020809623       -2.24133954171255
C            3.29732134589941       -2.02118372968274       -3.21272692190037
N            4.51168568447986       -2.63539390187318       -2.96462882474559
C            5.35740838712270       -3.40435252855717       -3.75287427387744
C            6.47531163904544       -3.76330843618482       -3.01598653859617
C            6.34854436023732       -3.23981188953670       -1.72136835155577
C            7.28149724651224       -3.43933735570436       -0.60599948786354
C            6.81877622898549       -3.62192393370368        0.69671592998726
C            7.69836356014173       -3.83579526162742        1.73238445168024
C            9.05755726265986       -3.87359990660788        1.49761871238679
C           10.01630350410974       -4.13625742254176        2.65379143708806
F            9.71623556196192       -3.29529156585463        3.65890415257908
F            9.86027859332557       -5.41058146265253        3.05288089438075
F           11.27849020407617       -3.93098213676380        2.23821328632951
C            9.53090899815281       -3.70016619269220        0.21267131988327
C            8.65715128718924       -3.48667318128298       -0.82799754380010
C            5.11901838287564       -2.52346343634839       -1.71524022664994
C            4.50714575004626       -1.75882530409715       -0.71254258116194
C            7.37553735220341       -4.60849697265327       -3.87210054538265
N            6.61806793907732       -4.67722803767972       -5.14672222899461
C            7.08836084001047       -5.29242318087593       -6.39306577215328
C            7.93650907318594       -6.53427894002739       -6.15901838963691
C            8.40492875443806       -7.20528044880199       -7.44280989680337
N            9.26451925714051       -8.34649997663882       -7.19320234382054
C            9.35838349743940       -9.39182508021424       -8.09404989653122
O            8.63089943430564       -9.42976262518849       -9.07094268608890
O           10.30864416728997      -10.33377544602378       -7.79644976657825
C           10.41600645970126      -11.42303913076948       -8.75180864187643
C            9.09333954633880      -12.19884014079602       -8.81101906024456
C           10.79246022637685      -10.87377799258100      -10.13461468600340
C           11.53286820443040      -12.35200760901851       -8.25018259805368
C            5.42481739382108       -3.95618961018311       -5.11037866240681
O            4.61135108713633       -3.80771650612277       -6.00541668816190
H            1.08705923112272        0.87870874110201        0.77135313495739
H            0.61361324411699       -0.35424668378472       -0.39365747176897
H            1.49008909510773        1.09063297601256       -0.93024278218093
H            1.75956930275736       -0.81391802966585       -2.43736960891108
H            2.85973894799544       -2.14024785032827       -4.18820328328445
H            5.75913753474755       -3.62888165241528        0.88259369668832
H            7.34020820400500       -3.98272698650056        2.73756735697918
H           10.59361284637537       -3.73541434092221        0.04112167632239
H            9.03257276764661       -3.34172177307038       -1.82573425079341
H            4.98066239726011       -1.62528574424075        0.24238856466488
H            7.51322432006835       -5.60697937861103       -3.44884442348213
H            8.34790407589935       -4.13649387895739       -4.03438533814163
H            7.64947772971345       -4.53775446198962       -6.95104772476601
H            6.20803763370973       -5.53448335248307       -6.99566981449537
H            7.37307855291552       -7.25430284582787       -5.55576150367865
H            8.80860922976815       -6.26926394342689       -5.55214766352229
H            8.94686998467304       -6.49596110822250       -8.07828397820698
H            7.54872453473902       -7.55280340366975       -8.03210164729157
H            9.92824365000758       -8.26509528665201       -6.42660213897277
H            8.29018959707301      -11.55195911712158       -9.15969869290532
H            8.82344709365537      -12.56160606629694       -7.82094869339491
H            9.16507180792472      -13.05150260866086       -9.48445425715718
H           10.01276179447522      -10.21002044048576      -10.50410312946555
H           10.92851795588339      -11.67829313958804      -10.85564418694852
H           11.71672134284335      -10.30203820432343      -10.07539394582513
H           11.29149304628302      -12.72980096250885       -7.25834392976068
H           12.47160214214546      -11.80598753583545       -8.17630705821051
H           11.67627557835732      -13.19935336836069       -8.91893927155917
