66
 energy: -13.522285396978 gnorm: 0.000942913223 xtb: 6.5.0 (97a52f5)
C            2.06222083711958        2.75318024666578       -1.37701019370467
C            1.06600916612558        1.69021013334585       -1.06772801082762
C           -0.19394660605015        2.01058961757451       -0.58723168275011
C           -1.12026349974322        1.03388589623403       -0.27251936935241
C           -2.46502662569252        1.41309812006979        0.24352439517979
C           -0.78294444142863       -0.32136952755341       -0.44933135716498
C           -1.76914553608704       -1.38195581038998       -0.12582818049485
C           -1.62654682374741       -2.20898073415489        0.99983102204480
C           -0.60196918834649       -2.22069984487476        1.98919345431165
C           -0.86009397223884       -3.24966533493398        2.85072669367018
C           -2.05520228137086       -3.91199569152477        2.43741247234192
C           -2.70851561952350       -5.03647595872837        3.08164318933463
C           -4.05465238307630       -5.26486293214458        2.99650035797046
S           -4.56597288962315       -6.62685953558435        3.90518725744745
C           -2.93408073851921       -6.98839644854781        4.42582084743272
C           -2.48761931936974       -8.03081504464040        5.22341828573832
C           -1.14174273827546       -8.15053233250451        5.48096905789365
C           -0.23736523541162       -7.24228577528750        4.93945728205677
C           -0.67182488094017       -6.20317385320821        4.15216506737167
C           -2.04133114036635       -6.05066613962600        3.89814592724439
N           -2.47988832718317       -3.24179823888136        1.32864139601130
B           -3.79985255421657       -3.45475688437732        0.55755165647164
F           -3.93323519786612       -4.79870085316012        0.23429403355891
F           -4.82727356753462       -2.99681009233876        1.37118505093333
N           -3.80053786847066       -2.63579553201269       -0.74886933218481
C           -2.84344267526922       -1.67113712617733       -0.98367607424577
C           -3.11488308360748       -1.15997987298736       -2.28589230696502
C           -4.18584299797870       -1.84167196841036       -2.79120130436381
C           -4.64310968745780       -2.77533462790785       -1.81336703098761
C           -5.70412032156709       -3.76693715253081       -2.00258250489133
C           -5.75342278242615       -4.61659887030684       -3.07691807967119
S           -7.11108346591729       -5.67078661496493       -3.02306780996470
C           -7.71495192721069       -4.95907107497149       -1.54197191328390
C           -8.86446769185722       -5.25942247570056       -0.82631924364883
C           -9.16388766168012       -4.52986409010407        0.30139480139534
C           -8.32796329558924       -3.49784192427590        0.71756869676134
C           -7.18508053125191       -3.19819697202708        0.01682177898802
C           -6.85438800845790       -3.94376569585681       -1.11913213869172
C            0.49376013838867       -0.65536163112381       -0.94097354494065
C            0.89331791762986       -2.07674247846311       -1.13727963933166
C            1.39388249072015        0.35356315430567       -1.22745811562736
H            1.58415894482548        3.72813020852862       -1.47641480483736
H            2.58011218562642        2.54175494707332       -2.31312209673944
H            2.80970732504386        2.82473590965642       -0.58638416723057
H           -0.45501688063682        3.04504722013475       -0.45231740286486
H           -2.50208423355878        2.46566140735589        0.52534825782031
H           -2.72290233835712        0.82482891809440        1.12472961445752
H           -3.23287837543138        1.24127067480449       -0.51116322611150
H            0.22243615379804       -1.53028506336247        2.04346779542140
H           -0.29153824103557       -3.47566466455875        3.73624856307230
H           -4.72572090543101       -4.65418313824310        2.42990219067242
H           -3.19691028150852       -8.73506605243273        5.62228064404634
H           -0.78379455809678       -8.95893642366892        6.09681509755841
H            0.81581680416754       -7.35870084415957        5.13634487342690
H            0.03488752332935       -5.52894486154940        3.70571289577846
H           -2.54065931334025       -0.40254759312348       -2.79167997882660
H           -4.62159166525506       -1.70483246162945       -3.76660175617899
H           -5.01836987452465       -4.64274611459597       -3.85693457095566
H           -9.50906645815181       -6.05150534277169       -1.16574330465906
H          -10.05557742617851       -4.75418386197302        0.86320275239391
H           -8.57850947295880       -2.93044618200082        1.59871741729157
H           -6.53452513801959       -2.40196219851030        0.33060517754243
H            0.02487878193239       -2.71137041651014       -1.31548067660934
H            1.41381481326041       -2.45822125247888       -0.25844680730858
H            1.55807036605685       -2.18266165397666       -1.99515614873624
H            2.37389727979633        0.09564081198307       -1.58780522949752
