61
 energy: -12.560413312327 gnorm: 0.000867173840 xtb: 6.5.0 (97a52f5)
C           -4.46993973401012        3.23738709092323       -2.06760645714025
C           -3.50483627218139        2.23288275960592       -1.54062281390565
C           -3.60881109118401        1.77564432186278       -0.23634405547874
C           -2.72009067939661        0.85317629511369        0.28255761797218
C           -2.86210310890506        0.38925410461511        1.69089325062900
C           -1.66707792432829        0.37797191429020       -0.52350850532728
C           -0.69811964941880       -0.60189696818351        0.02283341834743
C           -0.69580141696521       -1.96199395070161       -0.35604195763144
C           -1.53350238075826       -2.63882205631114       -1.27970982203005
C           -1.12053113013913       -3.94961723599038       -1.34572956860137
C           -0.03380284300694       -4.12690196561010       -0.46621970157652
N            0.19890022671241       -2.94385373674410        0.09946497299422
B            1.11365550251289       -2.67048421273596        1.31173110877634
F            0.45607874519532       -3.09465822192135        2.46524757489804
O            2.48768018506099       -3.28327348472666        1.27105053340525
C            3.54305359171205       -2.67498855566850        1.90665814333665
C            4.73284238765291       -3.32649196306015        2.19264863971058
C            5.81868334306336       -2.64432069438534        2.76287477351669
O            6.98917374769359       -3.28796774913457        3.05952271426441
C            5.71985918747398       -1.25536318601714        3.02261646957177
C            4.56362750267802       -0.54513045370288        2.75689657371865
C            4.41494088278692        0.92099488828344        2.89608730539732
C            5.43808684697181        1.70538584306297        3.43097720554790
C            5.32051756229248        3.07136712750215        3.52110801597767
C            4.17683094562014        3.72962253871306        3.07403078556709
C            4.05387678319173        5.20875686653191        3.19416415458993
C            3.14458460866478        2.97910962978961        2.55511769084563
C            3.23409815749167        1.58973789954684        2.45665371927316
C            2.14330711660426        0.80050340644057        1.91525635911845
C            0.92080779559937        1.05250139811899        1.27444674986183
C            0.36078856394857       -0.20470214299965        0.87710635123209
N            1.23272821009974       -1.15392548690646        1.33592617370795
C            2.31369310219978       -0.60826711237132        1.91602247565359
C            3.47243935119124       -1.29039086157466        2.25171150424370
C           -1.53968982808733        0.85625369614163       -1.84283435535844
C           -0.43328657708410        0.38465657026496       -2.72176466523414
C           -2.46268721091143        1.76451916228622       -2.32613960592662
H           -5.48359125709948        3.02098233477592       -1.72819529587542
H           -4.48018440093609        3.24252148135849       -3.15803132679832
H           -4.20755172375743        4.24013117527050       -1.72872857451135
H           -4.40352109031795        2.14776467214348        0.38559594738928
H           -2.20924084137045        0.95884347708638        2.35309978913297
H           -2.59863896540026       -0.66479789865261        1.78440945707068
H           -3.88690502653198        0.50569514498931        2.04501801158724
H           -2.34532426427628       -2.19380105158305       -1.82971476466003
H           -1.56430796504664       -4.71959463296797       -1.95651463458374
H            0.49629927962407       -5.03762821001734       -0.24146125408434
H            4.81913555573169       -4.36913513161793        1.95622703993011
H            6.92186271269700       -4.23507711086775        2.82716231906822
H            6.58723630481347       -0.76153583704366        3.41462012166371
H            6.33765872337612        1.23360626029816        3.78276846356454
H            6.12321429572318        3.65247427271521        3.94199967256748
H            5.03324398933054        5.68846141460736        3.17882176561987
H            3.55972006818049        5.48117699582474        4.12746312888121
H            3.47056744008977        5.62214793088376        2.37040837052240
H            2.24827457400471        3.47093437569438        2.22284484945645
H            0.51498950384916        2.02067151605134        1.04202816037446
H           -0.72454943142141       -0.51682710856076       -3.26264693571406
H            0.46096994688814        0.15521791430789       -2.14039010928160
H           -0.16184310778151        1.14465106562478       -3.45545222008086
H           -2.36596882039356        2.12303147538828       -3.33561475514973
