85
 energy: -18.129428486688 gnorm: 0.000392366785 xtb: 6.5.0 (97a52f5)
C           -4.42233201573786        1.22993368817110        3.15848462976189
C           -3.37771528834049        0.75751155101630        2.20775589710262
C           -2.47572974401891       -0.22685561463230        2.58027782291143
C           -1.48870642106695       -0.67064181739490        1.72019806936508
C           -0.53734591516014       -1.72905880165938        2.16028894371049
C           -1.37818403843245       -0.09614651046032        0.43842408735041
C           -0.31516969479852       -0.54953293576195       -0.48900364726234
C           -0.59256301481862       -1.25273323035232       -1.68063435611646
C           -1.84953770092493       -1.61841175178759       -2.22675357574077
C           -1.62905196641770       -2.17896538499341       -3.46287834160872
C           -0.24343774536021       -2.19533385337142       -3.71148773025886
N            0.34923203212530       -1.65922847648616       -2.64266330545982
B            1.86692287022091       -1.61543760957505       -2.33028846609953
C            2.32375434972310       -3.09722403476661       -1.85514945970581
C            2.36685761873289       -3.92783103440514       -2.95081473477431
C            2.70611912847056       -5.25876560897749       -2.83856592498989
C            3.02470380280226       -5.80430509150071       -1.59736280620019
C            3.38100281752797       -7.18168627494243       -1.43803130670942
C            3.70017043204449       -7.68665547055439       -0.22698887980625
C            3.69617444223063       -6.86253673743431        0.94321459047550
C            4.02880973485697       -7.35918559089175        2.20420689509335
C            4.02045350841424       -6.53699851699414        3.31201636043267
C            3.68345941330501       -5.20420069168738        3.19720587595544
C            3.34217119314651       -4.65936643427928        1.95886352277690
C            2.99652853249437       -3.28178569891873        1.79843143986030
C            2.67244140426142       -2.78395059832609        0.58795823576087
C            2.65251846011075       -3.59264305158699       -0.58962758183585
C            3.00330991134763       -4.96124078342399       -0.46075124431299
C            3.34622115777614       -5.49596267329011        0.81730614916799
O            2.79876409992745       -1.21766417936512       -3.46341809523178
C            3.99643582331894       -0.59718379798616       -3.20167954365226
C            5.03320177884787       -0.52538044778463       -4.11875579159383
C            6.20864252488226        0.18725905999153       -3.83533717297570
O            7.23750099235244        0.25077943145795       -4.73612553694911
C            6.33425279023530        0.87463808049315       -2.60293677073660
C            5.33560703747353        0.84540349465391       -1.64695628242427
C            5.34611713784183        1.61727143386995       -0.38391129509767
C            6.46379477899315        2.35814696994150        0.00439901352977
C            6.46419137310899        3.09994540487776        1.16125564423822
C            5.34832373758041        3.14004143640594        1.99508632770715
C            5.35248604029289        3.96643205697790        3.23411296199876
C            4.22791628867619        2.42461685309397        1.63234952515470
C            4.20205478122166        1.65682386219185        0.46678012040410
C            3.03497978048448        0.87436409849036        0.10502407512656
C            1.71874910483603        0.73447057912178        0.56785422751429
C            1.03641721927484       -0.17211672907967       -0.30461928973180
N            1.97706495863486       -0.58977636025664       -1.20996231331563
C            3.14775952134381        0.05258672753433       -1.04639638882530
C            4.19967579273085        0.05760717984010       -1.94921537523258
C           -2.27347935811127        0.92615951074635        0.06297448108712
C           -2.17898816506681        1.58678980096502       -1.26922580129477
C           -3.25677361115866        1.32436863337052        0.94861432328265
H           -4.77082678812219        0.41600998918472        3.79539329013834
H           -5.28796829122468        1.62793644288283        2.62751496090403
H           -4.03107659804747        2.01828264022704        3.80265865584143
H           -2.54825109673085       -0.65683992579729        3.56350772075296
H            0.38760321916444       -1.28736395048191        2.53248560552119
H           -0.28354032745314       -2.39563843977928        1.33525028970270
H           -0.96347395640267       -2.33922574348962        2.95739185607817
H           -2.80552778130734       -1.45645352204635       -1.75806621317647
H           -2.39022079969967       -2.54804687307031       -4.13181188609139
H            0.25868132114594       -2.56901421585196       -4.58726401894582
H            2.15034947661231       -3.51128439956918       -3.91857804173402
H            2.73097903308614       -5.88774655746231       -3.71168536520498
H            3.39108230064924       -7.81383101992725       -2.30903908698235
H            3.96672354782288       -8.72433555944606       -0.12468442410491
H            4.29535357723604       -8.39737128931076        2.30317989219556
H            4.28208735628823       -6.93944708158833        4.27690607369965
H            3.68262829158407       -4.56890514327995        4.06615534368726
H            3.00643814754694       -2.64284248662941        2.66441656332915
H            2.43838407075737       -1.74512592526761        0.49022837358077
H            4.91937849266323       -1.01591115720393       -5.06589255351384
H            7.01017291742773       -0.25921055576948       -5.53972365772535
H            7.22753893312683        1.44534424014901       -2.44157058194118
H            7.34525688863351        2.34734640945815       -0.61088083134396
H            7.33838463184729        3.66528514036534        1.43607868457394
H            6.36532775136283        4.09944049527748        3.61643098595421
H            4.76140733447126        3.49648706139250        4.02130018976191
H            4.93266111028815        4.95453858872956        3.04177662586551
H            3.35714120632607        2.44966687825100        2.26240787526435
H            1.27429762554050        1.27029302250912        1.38735677810395
H           -2.92724490545499        1.18761979558133       -1.95471292209763
H           -1.19708310566501        1.43820713747617       -1.71921425116497
H           -2.34068357555309        2.66199165915374       -1.18402188497312
H           -3.94046170018142        2.10173028522308        0.65645375205130
