124
 energy: -23.316129089032 gnorm: 0.000638068512 xtb: 6.5.0 (97a52f5)
C            2.36556012137041       -1.98150470748188        8.25847384519691
C            2.33035702149601       -2.28043061963355        6.79955968343418
C            1.17639178675189       -2.07236251749919        6.05995634836520
C            1.11771987288212       -2.35616380178816        4.70855880189505
C           -0.14351348706855       -2.10311558875849        3.95733759824645
C            2.24944763753470       -2.89755890949673        4.06490905861705
C            2.20701598637512       -3.22762004960883        2.61892708893591
C            1.46975160406665       -4.32265653158111        2.13224726666187
C            0.70504264981312       -5.25838935425270        2.85389589405357
C            0.18677483219003       -6.17858263646137        1.94160164799339
C            0.63195024170440       -5.81720033956360        0.63897761695005
C            0.26811124147368       -6.60145530468182       -0.50612025807547
C            0.69056663542825       -6.26694763049849       -1.79327761710392
C            0.35027502177649       -7.03301262057079       -2.87507296662459
C           -0.43455953808933       -8.17746364230466       -2.72275756719459
C           -0.82485037726734       -9.07243224134478       -3.91017797831285
C           -0.26832315937266      -10.49072274073037       -3.68273849610725
C           -2.35995438378680       -9.13042340470846       -4.02384040740382
C           -0.25970787671518       -8.53692338659769       -5.24047705173405
C           -0.86303234426593       -8.50828608012566       -1.45179164897511
C           -0.53946996645051       -7.75038747833602       -0.31982721722147
C           -1.00967789389995       -8.11932043108133        1.02214008209666
C           -1.82537996708143       -9.23643043660498        1.24308188351431
C           -2.27804272186252       -9.59315045663222        2.49957721670287
C           -3.18507438874919      -10.81279293753653        2.73277171482164
C           -4.52280885404873      -10.34272352662187        3.33374266063031
C           -3.48127020809068      -11.56814636499711        1.42182688921796
C           -2.49339247322261      -11.78620379536771        3.70551200129267
C           -1.89835360053739       -8.80205584059869        3.58427932067074
C           -1.10170506437472       -7.70069080950854        3.41300436449028
C           -0.64674367356507       -7.33703001341664        2.14377594501315
N            1.40008751608567       -4.70192493248755        0.79323669630517
B            2.15695100607142       -3.92618671507013       -0.30667412856447
F            3.06322172569486       -4.79235141116662       -0.91036431850394
F            1.22587013266298       -3.42053221506117       -1.20817362604638
N            2.94366999978642       -2.74329004081132        0.29905935043016
C            2.92083907729350       -2.47722656892277        1.66672089878714
C            3.73145444040901       -1.34419588926568        1.86768778709671
C            4.23493571157130       -0.95513280231530        0.62554471941784
C            5.12250580621404        0.12171577607597        0.26462419630983
C            5.63815309426523        0.99864360495272        1.22141696644879
C            6.48816092722554        2.01061050770210        0.86031531735151
C            6.86448610060825        2.19625695023326       -0.47022931146310
C            7.82635960894055        3.34003138959065       -0.83294317436188
C            8.11407008734815        3.39129749411616       -2.34669408699174
C            7.20189933670179        4.68419611181701       -0.41412866942515
C            9.16159824421846        3.13605238844828       -0.09313616068224
C            6.35407369234028        1.32947270267760       -1.41846749520705
C            5.48102337577734        0.28280100674459       -1.09469518352508
C            4.94526441517549       -0.62980658561195       -2.11420462435196
C            5.26199374117221       -0.49123232155145       -3.47158216521448
C            4.76739196150692       -1.33895127401270       -4.44499062206367
C            5.11519450301395       -1.17718361734392       -5.93399600284861
C            5.79376997046618       -2.46324518193387       -6.44223766757070
C            3.82307291116198       -0.92252221146327       -6.73273508907405
C            6.07552544640532        0.00446624991071       -6.17491473975728
C            3.91789831864563       -2.37144896773783       -4.04683542682863
C            3.58359082819662       -2.54044353000332       -2.73112443748230
C            4.07828991507517       -1.68754583234929       -1.74406981354369
C            3.72852163346890       -1.84610675166062       -0.36175463870643
C            3.42033053697471       -3.13039826782722        4.81545124576875
C            4.63816838094760       -3.70366298570861        4.17683973873677
C            3.43956673279790       -2.81166189332701        6.16010841966490
H            2.11115208323527       -2.86763091487179        8.84159059613340
H            1.65675429760983       -1.19362905614434        8.51713489700342
H            3.35732873554381       -1.64820656090101        8.56717673807667
H            0.30507144140739       -1.67519457396723        6.55015459321163
H           -0.66911283768760       -1.23346574910017        4.35399512713563
H           -0.81376884154781       -2.96093554537622        4.02368085401315
H            0.05612892238274       -1.91274089981018        2.90217952690710
H            0.56136176854007       -5.26347641737611        3.91937122510652
H            1.29207582179792       -5.38737044072518       -1.92277787307683
H            0.69675432900689       -6.74369985361144       -3.85122225460331
H           -0.68170019640330      -10.93924899530553       -2.78051058345529
H            0.81591130532272      -10.46614962018984       -3.57786510152125
H           -0.51132212500425      -11.14389586076563       -4.52035484562429
H           -2.80864137866859       -9.55829940866608       -3.12852227084259
H           -2.66480521389877       -9.74157420096382       -4.87285918868960
H           -2.77360910767773       -8.13188637691139       -4.16140241990832
H            0.82879856895885       -8.49573554425431       -5.21620097420635
H           -0.64064598548824       -7.53896388999993       -5.45520035174816
H           -0.54541667785985       -9.18369322590707       -6.06963139875311
H           -1.46480845527763       -9.38864990357183       -1.33772113931392
H           -2.11421854126566       -9.83718962834067        0.40425676212756
H           -5.01782012227339       -9.63882488845718        2.66549329680489
H           -4.37429674283436       -9.84670011194661        4.29183771037757
H           -5.19519526723136      -11.18459730557302        3.49563388840298
H           -3.99535344906013      -10.92716139763439        0.70627383110820
H           -4.12147727463633      -12.42974317815047        1.60933079697630
H           -2.56307750258371      -11.93460841683886        0.96375548995928
H           -2.31448595585182      -11.32057404402254        4.67350583432884
H           -1.53288780987114      -12.11092550759124        3.30679088803290
H           -3.10641264412701      -12.67147292108045        3.87181632762258
H           -2.23980153894635       -9.06137169630071        4.57139527618354
H           -0.82060161811232       -7.10200141391937        4.26172559067662
H            3.92445221450538       -0.87064413719428        2.81341599100661
H            5.36163937156437        0.86964429690028        2.25326316867476
H            6.87518097275643        2.67300678061029        1.61509034376011
H            7.19822305389320        3.54954738177852       -2.91531147082023
H            8.58123311561542        2.46860357600988       -2.68967085196437
H            8.79317778462032        4.21018100726220       -2.58269662000523
H            6.24411737457069        4.83437893181269       -0.91116660408554
H            7.85408861612061        5.51597005568626       -0.67862739961765
H            7.03108307491040        4.72530657591199        0.66062295259282
H            9.60829998139110        2.17948875507566       -0.36240778171110
H            9.02249549167436        3.14831487377687        0.98692115088777
H            9.87112351071312        3.92341493998552       -0.34571840159196
H            6.64164931256074        1.46293130170992       -2.44191071747189
H            5.91214924003159        0.30629110075232       -3.77011180351969
H            5.13342793453131       -3.32412351825554       -6.34856634527008
H            6.69867354435708       -2.67197680615761       -5.87230877995505
H            6.06975930578416       -2.36926271341934       -7.49215276181035
H            3.12990798082085       -1.75757824613717       -6.64179441501321
H            4.04008241026482       -0.78412149511725       -7.79152887444466
H            3.31780590428040       -0.02722988408161       -6.37161614280633
H            7.01317351588607       -0.13607464558550       -5.63779914164374
H            5.62902165190077        0.94553379809504       -5.85488905287039
H            6.31402920955414        0.09774183080393       -7.23416713964522
H            3.51789848356798       -3.04278290471222       -4.78674846024038
H            2.92701096569623       -3.33748534060089       -2.43853241479456
H            4.37878871390973       -4.33410804017791        3.32562611538454
H            5.29879305843400       -2.91269761532353        3.82012161731375
H            5.20007172736907       -4.31837801451161        4.88112449278060
H            4.33618063847200       -2.98713428496713        6.72805882406317
