76
 energy: -16.152164633308 gnorm: 0.000553598455 xtb: 6.5.0 (97a52f5)
C           -0.13403963064324        1.04262094210822        5.39550354941548
C            0.13816864291743        0.14082102406463        4.24193095748270
C           -0.69392065288194        0.14211601940799        3.13366304787245
C           -0.47018754942570       -0.69248578670490        2.05545647597502
C           -1.39010981873699       -0.64292993269470        0.88506321317145
C            0.61693860769187       -1.58949283599726        2.08862559411572
C            0.87454228519344       -2.50204594344395        0.94773346251643
C            0.04683687696817       -3.60822186280815        0.68459636083719
C           -1.08035892065604       -4.05206186675153        1.40011796890342
C           -1.55562716791624       -5.20433188658381        0.77294846441583
C           -0.71896039556854       -5.48412043775520       -0.34348219371490
C           -0.96483141392960       -6.62146707808514       -1.18221767427109
C           -0.15892916249790       -6.90458294097556       -2.28822762236094
C           -0.40338961161520       -7.99173979074835       -3.08202616765110
C           -1.46801450558361       -8.83038996296930       -2.79086483060762
C           -2.27724440108322       -8.57501209835612       -1.71099905010582
C           -2.05816891078462       -7.47272529097426       -0.87537717297828
C           -2.91929749288389       -7.18964598901541        0.28033359122496
C           -4.00373047128989       -8.00875281695457        0.61950405304356
C           -4.80142647446411       -7.73005581584774        1.70230329814284
C           -4.54855937188238       -6.61955670212970        2.49234707484746
C           -3.49640477246956       -5.79448771521135        2.19419432628901
C           -2.66988773350224       -6.05855742339388        1.09710516166242
N            0.23252274273614       -4.50876873845219       -0.36185561087781
B            1.41116460770747       -4.36716990523459       -1.34726685935434
F            2.19688205188906       -5.50936640229928       -1.25716306472483
F            0.89820652522394       -4.18281086378149       -2.62483094583150
N            2.28313030600953       -3.14558701422228       -0.99019355425393
C            1.97058095591620       -2.31792795844303        0.08583031849208
C            2.95490511208471       -1.31311519451682        0.11744910626691
C            3.84550076535675       -1.55718891609167       -0.92855105030574
C            5.03181304794239       -0.84821772027022       -1.33626324109822
C            5.47523594420485        0.28679230645016       -0.64949754628064
C            6.61083359443335        0.94414419238498       -1.04316567769632
C            7.33261364773172        0.48365842914414       -2.13326220384204
C            6.91558970265095       -0.62809040400368       -2.82359414976567
C            5.75972627391213       -1.32755492456719       -2.45382266073382
C            5.30020612872702       -2.51788311613615       -3.18139502462354
C            5.98422314745991       -3.01379900457440       -4.29833197711233
C            5.54618615878738       -4.12684977076607       -4.97314934703684
C            4.40278819405469       -4.79221024810119       -4.55913455732421
C            3.70802977624066       -4.33635952970417       -3.47225604198090
C            4.13090419691098       -3.20689580817801       -2.76618624634445
C            3.40970113613856       -2.71802720287028       -1.62662304315724
C            1.45369096740078       -1.61302503608518        3.22287268324816
C            2.60727522517911       -2.55207556326023        3.30201718476726
C            1.20349737190130       -0.74547039333910        4.26889276956823
H           -0.86071558407452        0.59423500993233        6.07377824678043
H           -0.53282981172013        2.00022536880947        5.05893482943686
H            0.77570069826147        1.24424252265673        5.96204976237034
H           -1.53354048925856        0.81404063497356        3.11095121603465
H           -1.72112947276410        0.37769026499233        0.69006685823935
H           -2.27448725981593       -1.25605711275300        1.06088591333350
H           -0.90209630539153       -1.00773403803508       -0.01907394685808
H           -1.48713218435626       -3.58925378716495        2.28102670603451
H            0.66016202983105       -6.24706630563423       -2.50937963048645
H            0.22774625681529       -8.19534213370911       -3.93159858484377
H           -1.66064127459362       -9.68579126365523       -3.41765345783089
H           -3.09595252321523       -9.24156079933825       -1.51189504592397
H           -4.22370750489806       -8.87750705610575        0.02689043045779
H           -5.62931289566767       -8.37760651407740        1.94089268679111
H           -5.17905155043169       -6.40699242657616        3.34023332378658
H           -3.29699138358680       -4.93243366277206        2.80623332585692
H            3.00464987370888       -0.50684810689123        0.82679324750467
H            4.91425742860055        0.64036542332053        0.19774577075945
H            6.94402738993758        1.81731712760517       -0.50636720974499
H            8.22675528100653        1.00225117921754       -2.43861407694044
H            7.49691752389218       -0.96215859455854       -3.66309338536859
H            6.87229977379284       -2.51785121084724       -4.64413331994825
H            6.09242668542827       -4.48608711393135       -5.83006112393262
H            4.06250441993557       -5.66465988346960       -5.09261691609073
H            2.82002253299933       -4.84397258798528       -3.14676630262784
H            3.50635801524191       -2.09940362965274        2.88305170817099
H            2.82013129144852       -2.82800854161530        4.33531837812295
H            2.40512474928865       -3.47150966051483        2.75173750425406
H            1.84769875404062       -0.76327812343677        5.12996194444541
