100
 energy: -20.075188184011 gnorm: 0.000627251866 xtb: 6.5.0 (97a52f5)
C            3.17225330464311        0.56587813147329       -1.91528203674254
C            1.88245895323665       -0.00651789506080       -1.44044560609618
C            1.43089883446913        0.24447747912754       -0.15385044523247
C            0.25667460490814       -0.30833914400379        0.32186635675602
C           -0.20099872609155       -0.02686216884552        1.70844479088236
C           -0.50413271498101       -1.13036011828178       -0.52234553333620
N           -1.73462861355247       -1.71454081208231       -0.04266831490604
C           -2.86066604452652       -0.85786718279169        0.19786644344138
C           -3.72811756823600       -1.08291906949682        1.26364370461348
C           -4.79434658307416       -0.24191640379641        1.49011706845732
C           -5.01080769465294        0.84183605148518        0.66198927167134
C           -4.15215688046415        1.08520934472053       -0.39175485174337
C           -3.08500985895962        0.24626891752488       -0.61996926077036
C           -1.79324216113825       -3.12555802014486        0.19312194077618
C           -3.00211787359081       -3.81643411295164        0.16017884670825
C           -3.03900703413732       -5.17459450027160        0.38809793778476
C           -1.87493582864906       -5.86483956678113        0.63778941538596
S           -1.95633825787412       -7.63342157736686        0.93935988249996
O           -3.30068074418195       -7.97195019298700        1.55326856761462
O           -1.50100916247595       -8.34924630385180       -0.31688262265216
C           -0.70410675352306       -7.80385201635808        2.21444351039317
C            0.29667206537470       -8.73381301107254        2.05535190934053
C            1.27120130764400       -8.86721463443550        3.02585545800407
C            1.23775710727781       -8.06626010780128        4.14355194347702
S            2.52291616869398       -8.25068138094191        5.38372902227239
O            3.08208023936792       -9.65878763819004        5.32042501368055
O            3.46136315679684       -7.06541203905412        5.26724509881306
C            1.54517753209245       -8.10247330133814        6.88085634499924
C            1.85505480642596       -7.12294904432808        7.79634435038553
C            1.11329338559375       -6.99658523762802        8.94997957683442
C            0.04026219579981       -7.84936553949165        9.19762673488878
N           -0.72056470362382       -7.75236647611055       10.40752871621330
C           -0.86019133049410       -6.51081687014624       11.11210252326516
C           -0.96286860370362       -6.50197542826658       12.50052548104874
C           -1.11380150125849       -5.31849444001870       13.18702637241188
C           -1.17097567997296       -4.12218237428205       12.49970312225215
C           -1.08187743257093       -4.11515533093214       11.12158611886010
C           -0.93088084218605       -5.29754677750882       10.43266081503447
C           -1.34642060678318       -8.93738754094654       10.94439303328512
C           -0.55920392589421       -9.98882346226213       11.43675573195878
C            0.92479836752996       -9.89727981300546       11.40217859745944
C           -1.17957938791101      -11.11743950055006       11.93947448687963
C           -2.56090792917167      -11.22934323146448       11.98181003076967
C           -3.20721270021374      -12.43849058609214       12.56227256394436
C           -3.32670071178278      -10.17415067897451       11.51001170201775
C           -2.74498327305273       -9.03732309110614       10.98049038917664
C           -3.59075907807446       -7.92358938287779       10.47476538061828
C           -0.25474771371341       -8.83725881448359        8.26065602015288
C            0.49420752711814       -8.96162963821389        7.11136791898703
C            0.23567807817580       -7.13533162999142        4.30339775812330
C           -0.74335615993345       -7.00754334931939        3.33683219919267
C           -0.66685231401086       -5.20307706516593        0.65113249840248
C           -0.62445268384875       -3.84412822527446        0.43366260789058
C           -0.05982902094977       -1.39263745424737       -1.82658796038711
C           -0.84529978078359       -2.27951188923379       -2.72531990546809
C            1.13042255490719       -0.83706736342125       -2.25760049023361
H            3.34087490065095        1.55667593753968       -1.49226090998245
H            3.18454515497740        0.66321343921816       -3.00122209271026
H            4.00774236159833       -0.07162191068280       -1.62459415671826
H            2.01266026408162        0.87743525980198        0.49224683200172
H            0.64465498843618        0.08042855852038        2.38847783719570
H           -0.82650403458687       -0.83720441325478        2.08371178445995
H           -0.78529941249547        0.89297239728481        1.74412253157554
H           -3.54348436405210       -1.91441850531918        1.92052870305882
H           -5.46016127465026       -0.42789195034704        2.31684329170095
H           -5.84660506268812        1.49836847240408        0.83956226223741
H           -4.31813241088462        1.93271607467776       -1.03640683616492
H           -2.41232758760462        0.43035357221703       -1.43875729377495
H           -3.90774138381948       -3.27971490445381       -0.05959963237229
H           -3.97428339886885       -5.70902332881623        0.37532514377576
H            0.31175954197753       -9.34734874461352        1.16996041177422
H            2.06086678065260       -9.59230092753530        2.91866562537659
H            2.68294900297422       -6.46271890263316        7.59911902512443
H            1.37016145636831       -6.25007274517710        9.68028812565870
H           -0.91806465848263       -7.43707440335980       13.03002858460197
H           -1.18763267988613       -5.32549747309628       14.26213727429864
H           -1.28846795115446       -3.19595927329118       13.03763843584275
H           -1.13302013147088       -3.18225422667076       10.58455594590068
H           -0.88331258923494       -5.29744911725930        9.35810174363384
H            1.25192085006617       -8.85922848382063       11.46751955403011
H            1.31660478245134      -10.31554356352034       10.47459888279521
H            1.37361323330381      -10.43957419713737       12.23494372809099
H           -0.57650580835893      -11.92599145316380       12.31235468974366
H           -2.60380407521121      -13.32942437495512       12.38574992817286
H           -4.18868354831386      -12.61094055256568       12.11957564796941
H           -3.33771076972759      -12.32730697275567       13.63908604397726
H           -4.39898920586013      -10.24333008789748       11.55349765523858
H           -4.52892094378950       -8.29587792239117       10.06216551630677
H           -3.07713908222660       -7.37277308497836        9.68636736446130
H           -3.82658869477231       -7.22251036162073       11.27582984078956
H           -1.07751432133334       -9.50400767525213        8.44851925841404
H            0.26693493323015       -9.72704956909461        6.38838911248664
H            0.22234132053464       -6.51185438306213        5.18152485610740
H           -1.53476050200598       -6.28533437933967        3.44929502660935
H            0.23941116300993       -5.75419394314879        0.83725742113778
H            0.31502550533554       -3.32087853407126        0.45002676499372
H           -1.89512426433604       -2.30094564626563       -2.43179909251901
H           -0.46555682644407       -3.30095622326666       -2.68932023404004
H           -0.79642718524806       -1.93524452098070       -3.75881764907381
H            1.48114361810110       -1.05419544624145       -3.25072718248187
