105
 energy: -20.365527137653 gnorm: 0.000802401553 xtb: 6.5.0 (97a52f5)
C            1.59946517013536        1.83496673831744        0.82269233566514
C            0.21271796803781        1.30991728515322        0.95560416101593
C           -0.81904643554542        1.81214663074457        0.17792768877458
C           -2.10722322346862        1.31345279931318        0.27704437278905
C           -3.19291529478588        1.84792853129790       -0.58703665952961
C           -2.35618302826831        0.28835846875676        1.18142878937598
B           -3.78624598252480       -0.34953304135740        1.30446427475115
C           -5.02359341801129        0.51890752263668        1.75173300415294
C           -5.03951494313768        1.21843021800884        2.95288953942968
C           -3.88210896306193        1.16786999630334        3.88505739053680
C           -6.16503981348204        1.95798234479207        3.27712982607494
C           -7.26648086305316        2.00717252307833        2.43745037350553
C           -8.46205014382931        2.82304404849279        2.78705157527359
C           -7.22152345167374        1.30427946179758        1.24492346021192
C           -6.11425449372299        0.55433710570551        0.88895499674665
C           -6.10979540451955       -0.17402997061297       -0.40771244979746
O           -3.99995106718238       -1.68261512675783        1.00376923964373
P           -3.16061831163552       -2.68980115434348        0.01045171939109
C           -2.37245852219866       -1.75197994273966       -1.30813443316815
C           -1.08637343053684       -1.27836434984823       -1.20262847943247
C           -0.52496408127695       -0.57012742519809       -2.24774975549066
C           -1.25897473593551       -0.33440960327733       -3.39210461996492
C           -2.55278049224448       -0.80372276621306       -3.49199537210819
C           -3.10948973155165       -1.51421421051934       -2.44456744998697
C           -2.06562347117456       -3.70373011157746        1.01520847969720
C           -2.64554917512549       -4.27567402555574        2.12270390166954
C           -1.89130647655785       -5.08049416231158        2.95838121059476
C           -0.56122281035951       -5.31087226351181        2.67138105687387
C            0.01330414383947       -4.74415656864952        1.55168381094730
C           -0.74279194327072       -3.94005218738155        0.72111916082086
C           -4.38451184873342       -3.80496616630688       -0.71589124739091
C           -5.68425783244248       -3.71384892021978       -0.25079640595015
C           -6.58459391887228       -4.57417159598190       -0.87386409743790
C           -7.99620473856476       -4.68500684663458       -0.59633053957795
C           -8.79100354496924       -5.57665408549431       -1.32294490977815
C          -10.13765535128356       -5.69034083657861       -1.07221417813469
C          -10.73266475606197       -4.91858206078657       -0.09348021796202
C          -12.22535277980550       -5.06995643777780        0.18888062858421
F          -12.88332817186549       -5.11462204488017       -0.98496534500149
F          -12.41322285450372       -6.21459401773031        0.87178237495517
F          -12.64692973820729       -4.01878868988494        0.91704883605110
C           -9.96260361100723       -4.03536191262655        0.63872739555904
C           -8.61492180139522       -3.91444006796990        0.39462622141165
S           -5.74375188958310       -5.51409914751772       -2.06657867477208
C           -4.20592364927644       -4.76286519635249       -1.71597898650205
C           -2.99959879604029       -5.09228148241787       -2.35551347591335
S           -2.78745689374476       -6.26053948708787       -3.66403565540421
C           -1.05630287672916       -5.97049086628263       -3.78316930580056
C           -0.18734218387738       -6.63529659608886       -4.72758969540011
C           -0.71284939904883       -7.55172672184480       -5.64215310545807
C            0.09851876524900       -8.18996774012759       -6.55002380735549
C            1.45647103361461       -7.93862339169751       -6.56932798206888
C            2.35565463236401       -8.62706809367719       -7.59323914987882
F            1.79128060560879       -9.79364744906144       -7.95864083216410
F            2.48038698242329       -7.81549606710171       -8.65975821665589
F            3.56003144735472       -8.84981305886715       -7.03389717209857
C            1.99329912188881       -7.03228659499753       -5.67598312785201
C            1.18879965649754       -6.38875306607835       -4.76500297925714
C           -0.68697919973213       -5.01823632760153       -2.83883342638748
C           -1.75074242961030       -4.58997435816047       -2.11311825544067
C           -1.34160482483043       -0.23116535268419        1.97642437030242
C           -1.61026875769802       -1.28364968269191        2.99040213092079
C           -0.06548275838249        0.28664984533891        1.84707951802799
H            1.61661890365970        2.77482803757118        0.27044347066095
H            2.23317486434085        1.12259134960388        0.29377248759800
H            2.04142755711876        2.01812401504839        1.80251267541456
H           -0.61179484498645        2.59872775935900       -0.52514672085193
H           -2.82520754723292        2.63013147730873       -1.25054679653211
H           -3.99527597978501        2.27343135144959        0.01489676684244
H           -3.61276412767815        1.05808822837314       -1.20870787573598
H           -3.72137296563829        0.15080817230771        4.24183588075115
H           -4.04511068296595        1.80196093905000        4.75695223102301
H           -2.97091802617718        1.51083668179943        3.39490436950994
H           -6.18652816373648        2.50593403030855        4.20203206943891
H           -8.47925615978039        3.06560958172204        3.84995532356298
H           -9.38212087913549        2.28552221356969        2.55543672419930
H           -8.46720736977157        3.75915397903639        2.22783864956504
H           -8.06508359794540        1.34405810220498        0.57890903455445
H           -6.14731593139694        0.52259869799632       -1.24556475054138
H           -6.97211883447494       -0.83686084966268       -0.48322463857584
H           -5.21264878855107       -0.78138434620871       -0.51545086827590
H           -0.53341708416845       -1.43082630115788       -0.29134936791151
H            0.48248717282100       -0.19718594213320       -2.16546806280028
H           -0.82207576461915        0.21814019969515       -4.20746671985766
H           -3.12708720414092       -0.62166872334351       -4.38517618252635
H           -4.11470754203322       -1.89870902049921       -2.51709659553905
H           -3.68797272629485       -4.08603843452003        2.33080203986849
H           -2.34259064799219       -5.52625924536923        3.82916207425645
H            0.02828573148326       -5.93806915256132        3.31964713030507
H            1.04893152830936       -4.93292626880476        1.32175236100459
H           -0.30812516348067       -3.52326477544037       -0.17062581564202
H           -5.95721258644358       -3.02077288138991        0.53068932946809
H           -8.33118081778296       -6.17715991885289       -2.08797506486716
H          -10.74642135712736       -6.37831051191413       -1.63415448134681
H          -10.43744276214738       -3.44280566397539        1.40219870498887
H           -8.02978494164618       -3.22198420363375        0.97279340812521
H           -1.76975258346773       -7.75144755575655       -5.62812735527454
H           -0.31046546149411       -8.89369806249115       -7.25476616413793
H            3.05267886950715       -6.84142919991418       -5.70445394526542
H            1.62184429470353       -5.68892008912137       -4.07297572338788
H            0.31868932342640       -4.65004133084957       -2.69492602921262
H           -2.62472872826174       -1.67065743291722        2.89451086806845
H           -1.49108482999457       -0.89056932693942        4.00014086003159
H           -0.91874204817367       -2.11816228868605        2.87568464930827
H            0.72662269040546       -0.10951553689869        2.45714021537512
