99
 energy: -19.477799988027 gnorm: 0.000403089530 xtb: 6.5.0 (97a52f5)
C            2.20852597063596        1.74389906860954       -0.69783079602024
C            0.98373763530743        0.90850418707984       -0.55254612487639
C           -0.23679442013224        1.34536010297856       -1.02944677549550
C           -1.38598829504433        0.57415957876035       -0.92503284462501
C           -2.64859107546377        1.14976290638103       -1.46501353670530
C           -1.31007735316258       -0.68422326695676       -0.32984817989922
B           -2.55753466494851       -1.73125872475077       -0.14729770299669
C           -4.03367588180175       -1.03166619649515       -0.28232684128341
C           -4.51919696379444       -0.45404409373123        0.89257254798205
C           -3.61396653730962        0.06564452793097        1.95407915583656
C           -5.87856179025541       -0.21322541514277        1.01752352884939
C           -6.75894141659720       -0.48494986110870       -0.01397839365107
C           -8.21935433447175       -0.23833123618765        0.13641852068654
C           -6.23917790714471       -0.92567360636916       -1.21722887403196
C           -4.88598665771700       -1.18211710750443       -1.37946582055448
C           -4.41604345825052       -1.58214692024799       -2.73752458499373
O           -2.46784069531328       -2.31546637919028        1.24074378808828
P           -3.37637763997629       -3.54559856062773        1.80749281699923
C           -3.96474671422795       -3.15650871975218        3.46436093040243
C           -3.29587627025065       -2.19475192973190        4.18357640940406
C           -3.68426425835330       -1.90722999675646        5.48031534308593
C           -4.72727973709949       -2.60672484622196        6.05508395894344
C           -5.36575196521899       -3.60455139671239        5.34461656375098
C           -4.97314350606054       -3.88814118952672        4.04899261060457
C           -2.35995192079785       -5.02194350733934        2.01575677968127
C           -1.88770969525568       -5.32827475451221        3.27171828261549
C           -1.07697318742272       -6.43367649739957        3.45707594290762
C           -0.73679903824807       -7.22489978936030        2.37776634719203
C           -1.20304564456090       -6.90928141767902        1.11712607596206
C           -2.01317662391142       -5.80372251995183        0.93950229123339
C           -4.76155956645884       -3.87401594546774        0.69817725569943
C           -6.12170937793870       -3.88994881739971        1.07467328870959
C           -6.98684942328010       -4.19825716052183        0.05836514044430
C           -8.44193282046920       -4.22939001945146        0.13619748397280
C           -9.19622646263280       -4.56107374487256       -0.98911155128515
C          -10.57258411907340       -4.58356666208186       -0.94065787750786
C          -11.22736458852829       -4.27310705076113        0.23461596315891
C          -10.49983070887697       -3.93931544412848        1.35997281425773
C           -9.12277345335904       -3.91605717253700        1.31412558287796
S           -6.07914489602331       -4.54211535214881       -1.39178546211859
C           -4.55925062672926       -4.11375383918076       -0.63360226619063
C           -3.30225240524639       -3.98170895914206       -1.34619949757557
S           -2.75548692805157       -5.09651923420789       -2.56803360936916
C           -1.30162924396050       -4.18451287199578       -2.86322741256681
C           -0.28678004375403       -4.55567903369788       -3.84172339323967
C           -0.45048754010351       -5.70093197817951       -4.62080435376846
C            0.49485496774561       -6.06714762576207       -5.55335117056425
C            1.62691905397505       -5.29634258025171       -5.72842577757634
C            1.80953491069944       -4.15908864784473       -4.96653782355635
C            0.86542426139609       -3.79048341140832       -4.03279547392791
C           -1.27986132960855       -3.08993755656586       -2.04482669891338
C           -2.39300336857347       -2.96773991514216       -1.18750890129569
C           -0.08140970553976       -1.14787843591151        0.14155751298407
C            0.09709623195942       -2.47500858720910        0.79622735822990
C            1.04200879370950       -0.34347191875630        0.02682943065500
H            1.96358782110138        2.80688799951173       -0.69118129456866
H            2.71923603014610        1.52206399388470       -1.63587637816358
H            2.90896717554826        1.56082896117685        0.11816583947850
H           -0.29385081362262        2.31394415632752       -1.49439796327072
H           -2.48329201226875        2.14131615388965       -1.88866485877671
H           -3.40055385046375        1.25864111534361       -0.68435198336677
H           -3.05577649576544        0.52782947048768       -2.25951503123203
H           -2.62463687388151       -0.38339165066234        1.89011644595143
H           -4.02167587579525       -0.13270210829448        2.94509024524381
H           -3.49016970795834        1.14513535477586        1.85861141593573
H           -6.25434736227341        0.21447856374385        1.93049589269456
H           -8.51311763155530       -0.23734051654343        1.18688823659486
H           -8.79923529142547       -1.01273277069429       -0.36775418167426
H           -8.49687142007385        0.72539409096970       -0.29251415845452
H           -6.90465956343918       -1.08242809494373       -2.04797321913119
H           -4.81153655207551       -0.90757804665554       -3.49811012941849
H           -4.75146611902950       -2.58975289561835       -2.98430307988091
H           -3.32988043644288       -1.55993565297773       -2.81527982063184
H           -2.45324892651768       -1.69125909348788        3.73682971077311
H           -3.17046411535443       -1.14328669110368        6.04064231275926
H           -5.03289159346738       -2.38440998794635        7.06455506362731
H           -6.16225659197167       -4.16875535826634        5.80172753559502
H           -5.42371991563333       -4.70574649319373        3.50961678675129
H           -2.14989771280688       -4.69953273471126        4.10713203742432
H           -0.70959897249525       -6.67420203282273        4.44137433764873
H           -0.10339340298837       -8.08566331770407        2.51832324811365
H           -0.93210538137200       -7.51976477361768        0.27119301400232
H           -2.35898888950674       -5.54208179346283       -0.04442315174025
H           -6.45309135853180       -3.61795506677024        2.06241113547809
H           -8.68310425575430       -4.79845819151064       -1.90458249335201
H          -11.13872735417291       -4.84286262526962       -1.82061985501009
H          -12.30436922471738       -4.29111237371889        0.27378917492651
H          -11.01133975709984       -3.69460371276012        2.27682826297105
H           -8.56521478162698       -3.64949335030028        2.19442754729946
H           -1.33386248331880       -6.29937821301492       -4.48240634527880
H            0.35039514566763       -6.95531447476748       -6.14691512007512
H            2.36662310080051       -5.58147396458050       -6.45875507941220
H            2.69364015581107       -3.55752926473335       -5.10309401673927
H            1.01709763699416       -2.90340336365847       -3.44375229371178
H           -0.48341299361997       -2.36539037609428       -2.05324456821170
H           -0.67469122374561       -3.17992985890503        0.49284008662162
H            0.04457823500472       -2.37820077261827        1.88112386751332
H            1.06143034757762       -2.91639479072220        0.54101353395635
H            1.98590572763556       -0.70488592187175        0.39589731010835
