79
 energy: -15.075244160252 gnorm: 0.000496580688 xtb: 6.5.0 (97a52f5)
C            2.24223818975847        0.54837039089929        0.18594726473114
C            0.83356830756057        0.11034674975378        0.38775023910408
C           -0.20127750062077        0.68677684247498       -0.33296846590001
C           -1.51152670691125        0.26356645279573       -0.18051222087510
C           -2.60006705946365        0.87364094945879       -0.98939847630352
C           -1.77967148251022       -0.76333768596451        0.71687603333254
B           -3.24096092701077       -1.31689974771006        0.88739695958737
C           -4.39003296018218       -0.37955034935039        1.42509037368898
C           -4.30697607595670        0.26278839406333        2.65548125429112
C           -3.12833014606210        0.07455838589564        3.54265357398181
C           -5.35692487380031        1.07399532573022        3.05484233314173
C           -6.47798080551995        1.25316262190509        2.25923524794068
C           -7.58547014346157        2.15164933788943        2.68880276584694
C           -6.53130862723919        0.60586743494852        1.03515224611074
C           -5.50283360349996       -0.21560816770769        0.60617309771980
C           -5.60467459613286       -0.88756668798367       -0.71715908618474
O           -3.56208418797346       -2.62000080787621        0.54823226103966
P           -2.80799329262023       -3.65227921478632       -0.48919378097643
C           -1.73469053249128       -4.73294783525027        0.47020994780603
C           -2.31498016397729       -5.29804877072753        1.58177341009172
C           -1.57692261715034       -6.14526912424421        2.39078912032602
C           -0.26227477702797       -6.42431264495622        2.07334006884775
C            0.31228615520991       -5.86368994692464        0.94955188800409
C           -0.42772029966278       -5.01691404740277        0.14619709524692
C           -2.01626739340286       -2.72898671100997       -1.81599753099651
C           -0.70205579301782       -2.33016180338448       -1.75110614366083
C           -0.14405018198583       -1.62161623038806       -2.79875386109781
C           -0.90992661775402       -1.31060868504893       -3.90459799595723
C           -2.23188691733829       -1.70522375392399       -3.96302915156291
C           -2.78502820774630       -2.41629494209292       -2.91295427354428
C           -4.10027836336880       -4.69973021930284       -1.20832855986885
C           -5.40524659917336       -4.55570105076969       -0.74265597692412
C           -6.31401852128427       -5.37951992256191       -1.36228434850672
S           -5.55082950448129       -6.35815723304323       -2.54495925095994
C           -3.97289405356929       -5.66409006173267       -2.20943983509269
C           -2.79440464192320       -6.05026007098679       -2.87142094199298
S           -2.67185376940947       -7.25825536402188       -4.16716359217011
C           -0.95062552897067       -7.04029099116460       -4.32065109888250
C           -0.49736784077328       -6.10184473293353       -3.43174306845005
C           -1.51704964867331       -5.59455324577721       -2.67120795541408
C           -0.76261799493290       -1.35434095447619        1.45740862091059
C           -1.04802861590056       -2.40248649079355        2.47131864033665
C            0.53553778663859       -0.91052877239895        1.27665020548836
H            2.28768446662581        1.54422129789143       -0.25665910338117
H            2.76930570399606       -0.13865406834194       -0.47732898320397
H            2.78126428843312        0.58202460208993        1.13364258573175
H            0.02093822768861        1.46935737303220       -1.03640793401002
H           -2.22290056304483        1.67467852338465       -1.62605294611391
H           -3.37295878112173        1.29674401823014       -0.34734592202736
H           -3.06364388614177        0.12842909165011       -1.63582485342911
H           -3.07608418015558       -0.95373051398204        3.90111733295328
H           -3.17793098636358        0.72763760417019        4.41476613712029
H           -2.20209754767869        0.30307794490932        3.01542935084045
H           -5.30235475454178        1.57732755779735        4.00382793393503
H           -7.58998378112312        2.28457319981464        3.77139673506808
H           -8.55511415085845        1.74296277831912        2.40144570060914
H           -7.48519528454023        3.13602134007405        2.22979188766919
H           -7.39052631098190        0.74508436532608        0.40305439454546
H           -5.64579495549938       -0.15563411890592       -1.52466549902885
H           -6.50453916790126       -1.50116984373494       -0.77283740548564
H           -4.74902471194845       -1.53676811282495       -0.89715540725663
H           -3.34377195933244       -5.06735299310676        1.81551833882221
H           -2.02808044372615       -6.58362560449452        3.26581126553327
H            0.31495754774604       -7.08317514082063        2.70127237719909
H            1.33528542312225       -6.08882912477499        0.69572809487450
H            0.00704216730815       -4.60150241082406       -0.74612449329043
H           -0.12420498757036       -2.53546548042710       -0.86596540778053
H            0.88416296682097       -1.30312969547585       -2.74563675675533
H           -0.47676381727006       -0.75566877445167       -4.72065874455138
H           -2.83197977387733       -1.46261291063676       -4.82466129605963
H           -3.81427449926904       -2.73797259077582       -2.94936325440645
H           -5.66313411230252       -3.85421041491618        0.03849968692254
H           -7.36475555357803       -5.41687983760530       -1.14667240129207
H           -0.34040111523587       -7.57704247100807       -5.02237637692017
H            0.53622710439209       -5.79568059639906       -3.33541567843555
H           -2.08576334126632       -2.73104459013641        2.41399722555420
H           -0.86706119453675       -2.02898272004794        3.47977775030604
H           -0.41019809165312       -3.27355451158313        2.32020992074256
H            1.32966118918955       -1.36437979066946        1.84278871264502
