135
 energy: -25.811032758960 gnorm: 0.001128349844 xtb: 6.5.0 (97a52f5)
C            6.90760418533348        4.79580099263792       -5.86858322703110
C            7.05447893175412        3.88546174517247       -4.69948220078859
C            8.20407180326965        3.93778745239114       -3.90643740313735
C            8.39924765700697        3.10451680288675       -2.81671093062098
C            9.64166454918063        3.18734397558097       -2.00721393579714
C            7.38118570686640        2.19021381432256       -2.50990203933987
C            6.23643438954699        2.11081898339918       -3.31842853572602
C            6.07062739829755        2.95302310802174       -4.40749129772033
C            5.37191128747499        1.09484371276535       -2.74562608471650
C            4.11432625695468        0.65020893849393       -3.12390677536105
C            3.46776667594857       -0.29588478469887       -2.34434884819388
C            2.12770952560547       -0.81508107292795       -2.73521807150437
C            4.09744658273619       -0.77641954886490       -1.19353095810062
C            5.34971890623442       -0.34283473019126       -0.78532610687064
C            5.96022885352675       -0.86560160903966        0.46416567364658
C            6.00601930495932        0.59828528161524       -1.59290376617565
N            7.26396818536390        1.25535625814748       -1.44242076237726
C            7.99912598762230        1.36985445332335       -0.21696692317698
C            8.84156582480337        0.35314874737495        0.27495315075860
C            9.50773897216365        0.50783701662005        1.45887229492887
C            9.38184448383280        1.68483782697562        2.22161518122022
C            8.51664646259936        2.67731782314277        1.73184252539964
C            7.86461938157484        2.52884678666733        0.53601861945345
B            8.29692577362917        3.88512421543441        2.65283131727578
C            8.00018816000785        5.30891752939933        2.07223519035385
C            9.12132785005974        6.22327113052221        1.92351767297640
C            9.85454080899089        6.73076644248380        3.15963121296917
C            8.87488023111922        7.16305108230224        4.25304500392991
C           10.88316925881424        5.73583377494702        3.69794376848959
C            9.42181186410020        6.67405324357974        0.65156743967030
C           10.54786823370643        7.41563721664737        0.19311884773012
C           10.53073369655502        7.89439009289554       -1.25561471698515
C           10.51929262214549        6.72246525642988       -2.23780415586167
C            9.36910076286058        8.85559261923779       -1.51249880516275
C           11.62101166957136        7.65735824830319        0.93737722646105
C            6.85155148353014        5.40109999395804        1.37203672655813
C            5.63230665449567        5.55957524265649        0.59330483995312
C            5.90582418336663        5.66702081149345       -0.91428967390297
C            4.61488942579472        4.44579443983804        0.88026911537977
C            8.35531383289492        3.53075614460442        4.14302152783446
C            7.48827947742805        4.07023934340120        5.06155782096761
C            7.52344579541714        3.66350958332874        6.39122636501498
N            6.56739885138698        4.16757454370432        7.33335724855209
C            6.83175380146363        5.06257103179270        8.40613165920749
C            8.01361594139414        5.70132420708869        8.80831333109749
C            9.29930736173204        5.49705641069232        8.09120594425002
C            7.94503717132565        6.53272607534953        9.91576404587712
C            6.75778334778962        6.76256506611036       10.61684687730391
C            6.74126145165772        7.69040094978064       11.78160706354739
C            5.58881161252162        6.15318626359075       10.18801648254081
C            5.62903070256283        5.30855140129289        9.08929960230969
C            4.58315402014437        4.55336931737803        8.42057202916880
C            3.22742517749196        4.43551706751115        8.68648405533046
C            2.44847665208990        3.61605602908835        7.88457926637072
C            0.98454688698890        3.49096779179906        8.12847760872605
C            3.04633070488734        2.93297956116030        6.82207044472393
C            4.40050521556084        3.02274092266750        6.53827340245467
C            4.98462882948016        2.25748769429421        5.40533491117496
C            5.17704291929663        3.86426335381043        7.34965910331080
C            8.47263700607930        2.69123681940925        6.76145185373826
C            9.31689986816651        2.14198077109830        5.83873319255181
C            9.28947431251481        2.53315197979228        4.48655058617772
N           10.05152000150213        1.88505000613699        3.46357469656996
C           11.38625842023444        1.42401230043118        3.66942068555675
C           12.20838175926750        0.91692334590252        2.60756583812884
C           12.32741724909904        1.28934080145047        1.27320758220637
C           11.95624409845225        2.49796780854502        0.64944812003001
C           11.53569061246104        3.60576089145515        1.23470617070957
C           11.91492846520952        1.35854370804507        4.92389841984683
H            7.41665641208642        5.74480454350597       -5.69450754574161
H            5.85764649965071        5.01546965222556       -6.06655351965911
H            7.33272926071593        4.34525081160782       -6.76637106865335
H            8.96947706356621        4.65060222735315       -4.15656229946350
H           10.47276376403902        3.57637062491062       -2.59642821613257
H            9.93249590363215        2.20271448804861       -1.64078234714288
H            9.50376071461055        3.84100719464232       -1.14526086814902
H            5.18239631258298        2.88905565645616       -5.00897310549810
H            3.64678825793604        1.04263841488076       -4.00836703972785
H            1.63315333709856       -0.14522659783406       -3.43983509795000
H            1.47853471600957       -0.91741999108713       -1.86460338544086
H            2.21468451215251       -1.79437645389394       -3.20755820870506
H            3.58358589702219       -1.50968102743485       -0.59755056709753
H            5.24583352090628       -1.45676557613685        1.03864271083831
H            6.29814560372989       -0.04961437051247        1.10378075277080
H            6.81531845604618       -1.50425321809501        0.24142873082522
H            8.95839802369530       -0.54479014286639       -0.30568463004180
H           10.13128707946130       -0.28433066804003        1.83327543522319
H            7.22309687199947        3.30816129009017        0.17892670303683
H           10.39499153454084        7.64239473141892        2.85675200656958
H            8.32809159112373        6.30688348381562        4.63956337123385
H            8.14171744667159        7.87565338553603        3.87196890146668
H            9.39033067823554        7.62647954937261        5.09590530489611
H           10.42149206073267        4.77180388812071        3.90116352236027
H           11.32956585734918        6.08873228131479        4.62884489074898
H           11.69361108029816        5.56954037470679        2.98888736035933
H            8.72820844021773        6.37637309994512       -0.11478032396607
H           11.47017406987517        8.45345890681362       -1.41139696776663
H            9.58837741243260        6.16113334170355       -2.16068378899563
H           11.33930412430483        6.03052109563134       -2.03938894904977
H           10.60765327969430        7.06355084387797       -3.27069124224514
H            8.41162395808326        8.35051084252191       -1.38440740766720
H            9.39547260789061        9.25386947831627       -2.52815390692726
H            9.38990903386770        9.69751981908715       -0.81865710522320
H           12.56265856354938        8.07448845650655        1.03032962182794
H            5.17542852655961        6.51669172757910        0.91621425568455
H            6.37325702364750        4.75758370226660       -1.28987158211904
H            6.57645491273639        6.49645995917113       -1.13930023079547
H            4.98427575842340        5.81802827039071       -1.47771775609442
H            5.00197310535469        3.47804359230356        0.56340820832114
H            3.67625062082378        4.61335490413944        0.35069822129987
H            4.39556362359413        4.37731624738692        1.94624722509034
H            6.74987365408794        4.78332775647730        4.74479463524188
H            9.76486477183775        4.55646424495029        8.38705185377986
H           10.00453782529639        6.30095583547635        8.30593015893457
H            9.14726501291552        5.47610734944678        7.01202332710024
H            8.84084107955154        7.02704523905768       10.24750780315582
H            7.67667962714883        7.63713591738543       12.34016170826177
H            5.93104477710274        7.44519888436161       12.46955194403899
H            6.60306251019918        8.72131931672412       11.45331996883833
H            4.65993722533119        6.33180744512589       10.69816294585781
H            2.78871813579121        4.97521757798317        9.50575416981617
H            0.74506094714598        3.65074567565198        9.18059160519824
H            0.62361174849709        2.49863285619505        7.85467846434457
H            0.43008238550305        4.22457099016263        7.54188997862472
H            2.42859588207489        2.30795568887650        6.20181007787211
H            4.32665433487780        1.44480942600147        5.09479431681274
H            5.94122259099034        1.81448251904737        5.68323160622002
H            5.14559226432886        2.90234572784231        4.54089194564860
H            8.49015511847826        2.35839656654764        7.78450101085050
H            9.96901545701076        1.34361811856333        6.13750354970722
H           12.88321164702377        0.13192495968699        2.92455604159258
H           12.84875101737064        0.58915522656466        0.63597165038934
H           12.09640812901676        2.54240821452313       -0.42387068917288
H           11.22222691172420        4.58340603902337        1.10976719964716
H           12.21649393966764        1.35486509423043        5.91254813276355
