92
 energy: -17.340501322818 gnorm: 0.000653623524 xtb: 6.5.0 (97a52f5)
C            2.58517573999549       -0.98827357823884       -4.37001780005656
C            3.61145499207218       -0.69709318027300       -3.33032010815923
C            3.79996201939519        0.61408161693868       -2.86949873130185
C            4.72163875379261        0.93792604910067       -1.89061633903076
C            4.89703361622808        2.34212159631771       -1.43612337069836
C            5.47366702732062       -0.11137240448647       -1.33761181095256
C            5.29199092005539       -1.42738737549559       -1.79216144662918
C            4.35970329281087       -1.72106632527849       -2.78274379495570
C            6.20170238037730       -2.27413574457129       -1.05211037139416
C            6.43420494646324       -3.64515358149448       -1.10655807303080
C            7.37043285418019       -4.20506699052373       -0.25918275321223
C            7.65763058775459       -5.66561796419799       -0.31500349968036
C            8.07460982337745       -3.37894348936256        0.62874135446853
C            7.86430647441319       -2.01453606886368        0.70827974669354
C            8.63157817292243       -1.17731024700121        1.66734969679331
C            6.91214559430548       -1.45504690107642       -0.15983398387554
N            6.46977160690381       -0.11874933588317       -0.32909719819318
C            6.92662925852658        1.02073128181184        0.42528962893968
C            8.14540156532888        1.65187296278843        0.10187145134034
C            8.58824596416297        2.70789192231274        0.83613371857993
C            7.84193990832735        3.18415181188639        1.91679009056198
C            6.61499661438579        2.58444364581714        2.26112860608112
C            6.18642673884399        1.49592951997950        1.48869573019747
O            5.81674383938107        2.99952495021283        3.30841236831719
C            6.21306140575519        4.05676282491654        4.10162644543789
C            5.37830739586290        4.45581083355797        5.16481112866633
C            5.72479333172838        5.49253604744511        5.98414503686368
C            6.92133659228363        6.18270717434590        5.78187279741352
C            7.75070882105447        5.82130650902322        4.75796473181151
C            7.41055631091681        4.76635186307027        3.91491095946018
B            8.30224260455101        4.33408143757138        2.76715674216678
C            9.65961415677116        5.07024066585320        2.48575036731909
C            9.67836113231232        6.18329039919574        1.63939087769369
C            8.48113818707028        6.66957348443921        0.83120178936162
C            8.26127922908497        5.82112748846215       -0.42245576849793
C            7.19058475692118        6.80538927497228        1.63803702013404
C           10.87657335720034        6.85460237265525        1.45967681427301
C           12.04104007237496        6.45781947081461        2.09415547541828
C           13.33660044031587        7.21673410979791        1.88017518952667
C           13.84191710824572        7.83757028110821        3.18498397059327
C           14.40302372856191        6.33158242126505        1.22995698563125
C           11.99555819203050        5.34572031719382        2.91501018103922
C           10.82450467235363        4.63700892772450        3.12678972872489
C           10.91741173842863        3.38339679056817        3.98848323056788
C            9.84209786711578        3.28393446775843        5.06948125373517
C           10.96656945452222        2.11236946090066        3.13908735927750
H            2.45100299383814       -0.13860123277013       -5.04090834036981
H            1.62095400309328       -1.21050672014859       -3.91072567355463
H            2.87360684149817       -1.84689748265203       -4.97814048602659
H            3.20172469724805        1.39871822693513       -3.29777809275571
H            4.37444796189803        3.04097713182812       -2.09070671218607
H            5.95134082375524        2.62085979049294       -1.43070076585722
H            4.50628894738386        2.47574087543969       -0.42682143562679
H            4.22372621689998       -2.73510899253339       -3.11182187731386
H            5.88994070000955       -4.25750476692782       -1.80218776132053
H            6.76498666259714       -6.23193451832560       -0.58457549085360
H            8.00536603211103       -6.03666884569653        0.65014313318528
H            8.42890597243194       -5.88055939672009       -1.05590968011914
H            8.80851560923651       -3.82821294259697        1.27408065158962
H            9.18697384569894       -1.79192391887895        2.37707044878271
H            7.96609519710675       -0.53192593747407        2.24160460321535
H            9.34855054971713       -0.54432457521258        1.14342785827077
H            8.71634194866247        1.27945942212472       -0.73054034049331
H            9.52200438667324        3.18659479890923        0.59703587370174
H            5.25970951379270        1.01643042046242        1.74033322163386
H            4.45731110211646        3.92112119860959        5.31589934266153
H            5.07215876891365        5.78142953499469        6.79180503973908
H            7.18849264163359        6.99916955460589        6.43268484148296
H            8.67525964021921        6.34551120344897        4.58929414056731
H            8.74713508028054        7.68759939389462        0.49225189489581
H            7.89899733037499        4.82977120883844       -0.15735512525287
H            9.18638652796692        5.69693946737991       -0.98722849851721
H            7.51791842389641        6.26811354073201       -1.08451170954044
H            6.79974276681906        5.82537610126366        1.90539460772342
H            6.41160773099607        7.31153649494423        1.06545768338687
H            7.35133819463136        7.36932465498854        2.55748046510894
H           10.90826305131943        7.70446488721144        0.80096129078086
H           13.11281399134427        8.04116666814621        1.18057889268123
H           14.08424636407158        7.06382249230723        3.91353263873330
H           13.08808247946416        8.48586344891684        3.63427169148960
H           14.74403053136145        8.42974157895771        3.02375500226972
H           14.68288792091739        5.51240684481268        1.89232719961455
H           15.31000966406078        6.89524776811748        1.00602139653947
H           14.03995612102177        5.89163152000438        0.29993183936951
H           12.90063238129494        5.01754522464581        3.39424932380546
H           11.88588591516845        3.45820995339361        4.51622582623002
H            8.86914261420462        3.08130467822802        4.62584669219601
H            9.76757410030986        4.20696966841504        5.64550210031757
H           10.04829548035476        2.46918876558380        5.76556878276082
H           10.00418078559808        1.92838528907307        2.66565097414711
H           11.20019264893311        1.23443060784119        3.74347114280185
H           11.71603159211596        2.18879812168450        2.34999796281906
