32
 energy: -6.353471441832 gnorm: 0.000512863358 xtb: 6.5.0 (97a52f5)
C            1.00869330125011       -0.06523928346473       -0.36402855731385
C            2.46964874022605       -0.06815869760960       -0.07418798696893
C            3.17312266633191       -1.28845586810632        0.06583305407716
C            4.51430132295768       -1.33594040460409        0.31650236356732
C            5.20236979776665       -2.65055319393065        0.45642942184383
C            5.24647034119920       -0.10929063686722        0.44054860614922
C            6.62060281945489       -0.07947626351439        0.69485966131518
C            7.30803371175578        1.12435636699283        0.80446791239304
C            8.69891425762516        1.21358333397718        1.05039771250436
C            9.30953313621208        2.42480786667942        1.13210961626944
C           10.77228397343666        2.47502092312668        1.39745594026375
N            8.64136074745751        3.61227134995319        0.99997253602041
C            7.36287692775319        3.54391810137426        0.77782296683081
C            6.61296011574329        2.34868631050801        0.66135266416121
C            5.24320491260601        2.33160045436921        0.40976654463284
C            4.54760564653794        1.12852523498936        0.29588315379921
C            3.15162440983844        1.10499923538403        0.03576705042848
H            0.57268483713372       -1.05443670144158       -0.21943754839153
H            0.81890379684381        0.23744410344879       -1.39463362601862
H            0.48218690652434        0.62832715137611        0.29296128597833
H            2.62530397900940       -2.20894176982529       -0.02990505897229
H            4.50656292761916       -3.48035684386777        0.32633929681106
H            5.65379251716141       -2.75136839851738        1.44423286163740
H            5.98856706499208       -2.76056620557874       -0.29155336361905
H            7.16420849487440       -0.99938172375983        0.80568924421559
H            9.27355986150768        0.31309485883021        1.17166641165947
H           11.31619776788467        1.81632273593969        0.71954249374481
H           10.99196688486808        2.16843712670522        2.42051673454849
H           11.15285334473131        3.48686982817746        1.25963462520943
H            6.83916099613522        4.47962048982360        0.67214347337873
H            4.71440375054244        3.26102441873898        0.30063644957207
H            2.62545004202016        2.03592610069300       -0.07741593972811
