28
 energy: -5.918919135096 gnorm: 0.000387370536 xtb: 6.5.0 (97a52f5)
C            0.95722597619572       -0.05760768163373       -0.07046233961451
C            2.44574591880744       -0.02781282189305       -0.07524827443605
C            3.14305964435722        1.18946194899296       -0.07911062490903
C            4.51241331327622        1.23800986939751       -0.08398537275389
C            5.23533939354811        2.53624582747291       -0.08830970522076
C            5.26030958587281        0.02922779225544       -0.08532927159335
N            6.60235550724860        0.09507070218860       -0.09016287414589
C            7.21039378256474       -1.07211625801986       -0.09113463487285
N            8.59957738971321       -1.09275586804621       -0.09607068495998
C            9.36125644787485       -2.24608974695593       -0.09809109109493
O           10.57774365120633       -2.20657266066370       -0.10246677528688
N            8.67467906227708       -3.44573319399981       -0.09468193166847
C            7.29507193131515       -3.55160360084497       -0.08903829405040
O            6.74592822924827       -4.63793872162676       -0.08556437313288
C            6.51580773608974       -2.30776493586871       -0.08738482119152
N            5.20772176548602       -2.39297585333250       -0.08253804977998
C            4.56712188029347       -1.20680590188957       -0.08149890562328
C            3.16005076978080       -1.19509733649960       -0.07651356676564
H            0.53897859731211        0.94925077732114       -0.06757736953267
H            0.58378162721494       -0.57618498771652        0.81321376984871
H            0.57811530144267       -0.57351613516599       -0.95329117753414
H            2.58470641384698        2.10827740474993       -0.07831652185605
H            4.54609446659806        3.38113789030366       -0.08480842506295
H            5.86659793567412        2.61832689038172       -0.97362188779615
H            5.87617473862828        2.61884848508118        0.79004751815936
H            9.07783935507080       -0.20715788435515       -0.09851099051781
H            9.20816425119628       -4.29489629366212       -0.09588463346935
H            2.64266532786000       -2.13751770597086       -0.07384869113866
