62
 energy: -11.720635277271 gnorm: 0.000754766940 xtb: 6.5.0 (97a52f5)
C            1.40716697829508        0.42181307542008       -0.03426929216126
C            2.70963547500980       -0.28201284622468        0.16448214074866
O            3.25188753316238       -0.26079313259306        1.24790686887633
C            3.32618618315708       -0.99874166982361       -0.96423440471041
C            2.72072661247256       -1.05332289735918       -2.25129583348902
C            3.31712300732152       -1.70455686615287       -3.27466338583621
N            4.53215427346376       -2.33446944681906       -3.07230036524195
C            5.37756981075550       -3.04266532098787       -3.91629414051351
C            6.49748101880021       -3.45297528272423       -3.20940140890248
C            6.37175803692032       -3.02662502862845       -1.87937576286384
C            7.31574294670996       -3.28854539597055       -0.78659023648380
C            6.86789362017188       -3.54334715481373        0.50938675616341
C            7.75812660346627       -3.80474839709799        1.52448975641972
C            9.12001490807559       -3.82327919563691        1.27888618991664
F            9.99623532191847       -4.08310855035152        2.28199063482429
C            9.57600909281816       -3.57737663823728       -0.00441704450349
C            8.68975617487247       -3.31662072137319       -1.02310590500885
C            5.14038053478519       -2.31515604241355       -1.81834973109050
C            4.52799239119614       -1.62667928802462       -0.76191274997157
C            7.39798820154185       -4.23020079480894       -4.12788931537020
N            6.63593156163927       -4.21133669731466       -5.40161650840209
C            7.10239250711357       -4.73871610618292       -6.68880847372984
C            7.95457250866415       -5.99121975775573       -6.54751961058151
C            8.41909572718954       -6.56202390758439       -7.87997524922611
N            9.26760788063366       -7.72776383827259       -7.72389433758494
C            9.37800612516940       -8.68210110564125       -8.72068234958366
O            8.67334642042731       -8.62234626101361       -9.71385555210089
O           10.31878780681394       -9.65430318764805       -8.48974557443276
C           10.43658515087793      -10.66110985630828       -9.53220000393246
C            9.10928111880992      -11.41441553787876       -9.68812293255571
C           10.85137742184732      -10.00451687176419      -10.85528256884789
C           11.53033622239616      -11.64491238489579       -9.08847900679817
C            5.44429617223818       -3.49112725362356       -5.31215144616947
O            4.63331894953189       -3.26853136838204       -6.19478301714510
H            1.10088426282598        0.90385475632994        0.89317716806991
H            0.62251083549708       -0.27697987149748       -0.32285158669362
H            1.48981254019191        1.19271457748372       -0.79987601734747
H            1.77706440099836       -0.56271107740821       -2.41016153235441
H            2.87955027782236       -1.75054865560517       -4.25605308844683
H            5.81033058214296       -3.56533199952490        0.70473763139842
H            7.41205422863487       -4.00521139802081        2.52306217453750
H           10.63597474078822       -3.59494115010246       -0.18679800984932
H            9.05374158526381       -3.11714169129278       -2.01555099326404
H            5.00080341603276       -1.56597118412879        0.20035247786490
H            7.54366643227477       -5.25543844917077       -3.77753494475643
H            8.36776206133698       -3.74345033658954       -4.25958541771459
H            7.65871942614776       -3.94673688413931       -7.19744108803041
H            6.22082909092152       -4.94157671404094       -7.30366011458115
H            7.39480574301115       -6.75538381497065       -5.99764069759589
H            8.82764435453483       -5.77003221873727       -5.92479865535173
H            8.96667021691745       -5.80785680219022       -8.45595629140289
H            7.55957595295126       -6.85058154312620       -8.49517981337430
H            9.92086976957460       -7.72033521693583       -6.94386190009863
H            8.31932939980255      -10.73254995552243       -9.99689246388333
H            8.81399668300062      -11.86087904962068       -8.74052267626291
H            9.19007638221793      -12.20508881661017      -10.43233457599741
H           10.09138944540024       -9.29828435127482      -11.18384840867937
H           10.98909968409915      -10.74863605845588      -11.63814543972580
H           11.78402170238332       -9.45767538678224      -10.73053025471207
H           11.26431526735286      -12.10023444111370       -8.13642451689035
H           12.47558410104339      -11.12256083073090       -8.95347597622321
H           11.67389311856226      -12.43617570735058       -9.82262112836081
