34
 energy: -6.786019040954 gnorm: 0.000922168611 xtb: 6.5.0 (97a52f5)
C            0.92910533922216        0.09034315428353        0.04484767606077
C            2.41791279742540        0.10714143465764        0.04052508337242
C            3.12376493333820        1.31101381174129        0.03689842302751
C            4.50003305509128        1.34246110576245        0.03228437168653
C            5.23662515293892        2.63337542119634        0.02802897422988
C            5.22652560720204        0.13239885417853        0.03108453693613
N            6.59376932573416        0.18942717663118        0.02656851959135
C            7.25381929733643       -0.94489727065233        0.02550815281518
C            8.70328619284304       -0.89063337761489        0.02072644102418
O            9.31649093497697        0.16426066129595        0.01820401541912
N            9.35346182380804       -2.11812014013916        0.01885963411330
C           10.79699475076944       -2.13817783499888        0.01197771691586
C            8.66669277228962       -3.33755788112402        0.02167629689275
O            9.31970765722358       -4.37279738665773        0.01923966029685
N            7.29978605116622       -3.37230269406402        0.02690668923494
C            6.63719153522950       -2.23039353590130        0.02845756462407
N            5.24973051718711       -2.27268010990820        0.03331166102867
C            4.58538189392718       -3.57126696143650        0.03767153772001
C            4.52176968136956       -1.08757821991162        0.03471550528238
C            3.12410797527517       -1.07225793973782        0.03935610845782
H            0.51944533751528        1.10065640053733        0.04789966172957
H            0.55073699261078       -0.42553802114677        0.92786501610219
H            0.54565422228749       -0.42228659830542       -0.83787150696479
H            2.57708986333024        2.23667253266728        0.03758826139317
H            4.55617815032298        3.48512897881010        0.03163898311423
H            5.86914311721573        2.70930861068780       -0.85665651246288
H            5.87885266506851        2.70958280071246        0.90566875288327
H           11.18180420354354       -1.11939678051940        0.01107948462980
H           11.15060694085247       -2.65838716890515       -0.87621534141847
H           11.15937121155416       -2.66021643399043        0.89555705801279
H            5.32739860665803       -4.36637668783166        0.03614807135973
H            3.96411697403797       -3.67778932128940       -0.84921251704256
H            3.97077252471473       -3.67504102090477        0.92949885708594
H            2.58315189593400       -2.00008555812238        0.04174316284826
