47
 energy: -9.785644081346 gnorm: 0.000602976745 xtb: 6.5.0 (97a52f5)
C            1.42988156373684       -0.13302550828235        0.37307019647346
C            2.76374078941716        0.48158615376904        0.17112162738687
C            3.98063861434970       -0.17438699337667        0.10786202477853
C            5.00626412979912        0.77538342317366       -0.10317339584124
C            6.45607766969030        0.53894689754798       -0.23672689987292
N            4.40551251445082        1.96921556149743       -0.15633161093164
C            3.03082755362559        1.87116121712793        0.00144602336069
C            2.18835567950774        2.97434955719090       -0.00786978524423
C            2.74820753484784        4.22163110750017       -0.16712662894935
C            2.10510918851886        5.52258544340938       -0.17120622660246
C            0.76867391143105        5.89475178603766       -0.08806087309752
C            0.44526522528070        7.22997588208527       -0.20185956846038
C            1.43231615633749        8.18654633411364       -0.41633737457967
C            2.76112093046664        7.82992072619583       -0.49894806451028
C            3.11449747531986        6.49100619963546       -0.34488854344449
C            4.39587217741354        5.79981619617516       -0.42106412620002
C            5.70089878853058        6.37541873127639       -0.53479964323021
C            6.81005534405554        5.76915303158637       -1.14199240781256
N            7.86463757540056        6.60612441819622       -1.14055934015032
C            7.50306463955237        7.79315848787883       -0.48755441064167
C            8.24339479976680        8.92902515841146       -0.17235093277481
C            7.64566184515739        9.91969250739798        0.57249365991553
C            6.33224162239120        9.78482216977019        1.02130147412710
C            5.58857536980070        8.66849902811972        0.71517360151479
C            6.16243904338837        7.66952579397296       -0.07427407402596
N            4.09671964953223        4.46994651451312       -0.34581020231464
B            5.11118806481655        3.30860467631612       -0.43164623324557
F            5.63689377567971        3.25040124631330       -1.71704883374592
F            6.09906627867052        3.49198845646593        0.52577238338662
H            1.50884415533996       -1.21482570483726        0.48358306712694
H            0.77696655987786        0.07074238943801       -0.47616918429291
H            0.95228019232756        0.26245203248958        1.26992106607108
H            4.12381952915936       -1.23738776995166        0.19883922917824
H            6.68246229075719       -0.52691779972709       -0.27240880562368
H            6.99313697221804        0.97651594381893        0.60507671108255
H            6.83352178465748        1.00047237860452       -1.14950838396043
H            1.12960976375685        2.85798561796107        0.12580479231889
H            0.00897002176772        5.14608365114463        0.05029046392908
H           -0.58644009714372        7.53460212657988       -0.14022281906116
H            1.15232430429400        9.22106370403479       -0.52839516549280
H            3.51350206241358        8.56331376829996       -0.72464561316520
H            6.81178612610559        4.77802015725749       -1.55858481549782
H            8.80257851819868        6.43100011174299       -1.49863692750880
H            9.26391514254878        9.01157370290977       -0.50113437942531
H            8.20496365038182       10.80495680388410        0.82656966800990
H            5.89697435794628       10.56325308892733        1.62608520843382
H            4.59881675445552        8.53932159340074        1.11367407260859
