41
 energy: -8.387304306149 gnorm: 0.000942285600 xtb: 6.5.0 (97a52f5)
C            1.47107420742096       -0.78870250403598       -0.95009788420030
C            2.71177298974650       -0.08383349885001       -0.54904936996637
C            3.91473940449942       -0.66190351668964       -0.18136292172515
C            4.84060474138745        0.35908978382867        0.13432664819757
C            6.24529464212917        0.21965428055319        0.56184232126694
N            4.19529808513327        1.51731452926215       -0.04199035482077
C            2.88513310259017        1.32835353931916       -0.46216940653256
C            2.01249829775793        2.37954956281494       -0.69377391140111
C            2.46804904441209        3.66471436456259       -0.49688849059550
C            1.73317303702740        4.91248969179286       -0.59314692208507
C            0.41919283315886        5.18512723547705       -0.95133504160901
C           -0.00406461998868        6.49753129402564       -0.96688452307312
C            0.86603242209198        7.53025890796814       -0.63654754493933
C            2.17168438607255        7.27205826300589       -0.27542426114708
C            2.61598819029721        5.95226287392673       -0.23754968086800
C            3.90478199484313        5.35568835493357        0.08189739229095
C            5.08323149929501        6.01782668631288        0.53790509723272
C            5.22546979768920        7.31662472523009        1.05908034508036
C            6.56181433989093        7.50567788689504        1.36074933964225
C            7.24398349183409        6.34128174001007        1.02724204936162
N            6.35000217571531        5.45440181205909        0.53566070839798
N            3.74997854370270        4.01043260169293       -0.10700100325597
B            4.81480379266861        2.91363278685228        0.14239509798687
F            5.85040219662146        3.02884795117436       -0.77695836910232
F            5.27431182146263        3.01484595288700        1.44786223550541
H            1.61972689905951       -1.86878651706506       -0.96229945822362
H            1.15620289087929       -0.48211146223226       -1.94796083048102
H            0.65900525558193       -0.56929311537337       -0.25625947530953
H            4.11498814810466       -1.71884245697884       -0.14352942536796
H            6.52922432909550       -0.82872735126893        0.65541857223407
H            6.39925113834156        0.70481188208596        1.52593840121903
H            6.91126210065965        0.69300212845144       -0.15997740353836
H            0.99841483620839        2.19414793205572       -0.99316280882088
H           -0.24567482220105        4.38130329386576       -1.21279050680571
H           -1.01993413065583        6.72565647653665       -1.24432962669003
H            0.51544364864087        8.54874520824156       -0.66720034086340
H            2.84394722329635        8.07814870644083       -0.04960734849560
H            4.43560441400342        8.02403630385913        1.24155592239848
H            6.99637673958439        8.39541524853072        1.78805859100644
H            8.30161479777026        6.15942202014503        1.14317072150363
H            6.49001611417120        4.50771639769747        0.19182346659347
