76
 energy: -15.075427334271 gnorm: 0.000399518397 xtb: 6.5.0 (97a52f5)
C           -2.65975271100441        0.31717562888803       -0.53157219243930
C           -1.24892802632405       -0.01668738768347       -0.26234671347650
C           -0.70578428906376       -1.25000089228764       -0.33277633506085
C            0.69794458596572       -1.30387869854485       -0.02032393189208
C            1.45668092001824       -2.56351479519330       -0.09353927665039
C            1.38611423358704       -3.44058695821957       -1.11614699110623
C            0.64732669251368       -3.23542685407255       -2.37394213203806
C           -0.34896607904542       -4.06537271296602       -2.81762529745742
C           -0.82133359861660       -5.29029199220324       -2.14917698525471
S           -0.99532731714539       -3.47324306389838       -4.30533487695959
C            0.06322279438115       -2.09316960931185       -4.34037893440324
C            0.02414049286134       -1.08495891205304       -5.40346091078715
C           -0.09217732790388       -1.47404887381663       -6.73850083841353
C           -0.12668991988852       -0.54204114726992       -7.74659758386091
C           -0.05748179705984        0.81976934436305       -7.45762664057644
C           -0.08303267557661        1.82646231833794       -8.51080214904012
N           -0.17478757276615        3.13275402560657       -8.28328072417045
C           -0.14922023343556        3.73939744484016       -9.48561210869321
C           -0.29487106786842        5.19203400075179       -9.65559635076811
C           -0.92042261436083        5.74145443614194      -10.77314724616100
C           -1.06189354853155        7.10467238138596      -10.89999870511821
C           -0.58992378842623        7.94460910863364       -9.91184374607898
C            0.01906554444059        7.41651279272423       -8.79155931069857
C            0.16144421461312        6.05335266259262       -8.66201296339042
C           -0.00790215346697        2.76756512912503      -10.50309341536744
C            0.18615797161261        2.95843696285852      -11.94455615364742
C           -0.40846392500583        2.08926155090388      -12.85651994086801
C           -0.21385856143224        2.25005896305556      -14.20992215045376
C            0.58308553349994        3.27508633638989      -14.67841447781071
C            1.18960209694782        4.13835754591140      -13.78867563682414
C            0.99710977713523        3.98142250981289      -12.43507614685014
N            0.01112944433270        1.56397506578083       -9.86464557346274
C            0.03572751668562        1.21167821958238       -6.12371704241685
C            0.07698469629803        0.28007462368367       -5.11577122445058
C            0.90169051054774       -2.12274969417170       -3.25869897890638
C            1.99546639911366       -1.14102463656544       -3.02490734743661
C            2.20071561185717       -4.68832166054005       -0.83113534712019
F            2.98168239004874       -4.99301806498695       -1.87949412837012
F            1.38896786151808       -5.70725741232398       -0.50609826282014
C            3.08157789383436       -4.31851126130535        0.39912552735363
F            3.16291621970850       -5.33879785570729        1.25428435787127
F            4.28398549390094       -3.90986669780832       -0.01710909986853
C            2.31154066288011       -3.11955705129632        1.03311763030135
F            1.52023707141231       -3.56553518331101        2.02264673676407
F            3.19475311251713       -2.21529127400500        1.47935972977391
C            1.21452638438509       -0.07310516566774        0.28832959462182
C            2.60909032215344        0.24094668814256        0.64417585090513
S           -0.03096999639730        1.13006517960678        0.20549273385835
H           -3.30658557340099       -0.07371315224661        0.25478535016820
H           -2.98601862474458       -0.10537160068066       -1.48266936102726
H           -2.79926049039115        1.39785469582876       -0.57702807952382
H           -1.27264734368203       -2.12654496672515       -0.60311412882300
H           -1.01690824775846       -5.10605509725748       -1.09208050538053
H           -0.06829759525948       -6.07684501943241       -2.21573913047993
H           -1.74031828367168       -5.65644490251753       -2.60825590885023
H           -0.14846384072396       -2.52395683345632       -6.96838174273419
H           -0.21680661836762       -0.86067900697890       -8.76931356972095
H           -1.30437392741854        5.08582387611482      -11.53487676121019
H           -1.54383654693532        7.51654451970477      -11.77150519228712
H           -0.70062708997879        9.01184899275740      -10.01287706270315
H            0.38169424954485        8.07166376195728       -8.01653605093983
H            0.62965587028914        5.63394940482949       -7.78853446647815
H           -1.03133659315747        1.29278127693930      -12.48828870239003
H           -0.68357543374433        1.57372982198829      -14.90517696022532
H            0.73479418260326        3.39913440739542      -15.73815981520846
H            1.81716184469378        4.93471531118123      -14.15390257148964
H            1.48027306127045        4.64473710312534      -11.73878890866768
H            0.16328727112205        0.65788651817808      -10.30662282780182
H            0.07584397516730        2.26244555256877       -5.89606680728525
H            0.12870737412487        0.59790846534181       -4.08920643999326
H            2.40959515762507       -0.78475381777167       -3.96837804635609
H            2.80944052252138       -1.59664732094531       -2.46030815929427
H            1.63476122478346       -0.27992761077453       -2.46280423677652
H            3.30667885606388       -0.35109326021480        0.05049369100751
H            2.79520235566482        0.01573575412147        1.69513586015310
H            2.82719101833894        1.29617806300614        0.47603624400682
