53
 energy: -10.258772587742 gnorm: 0.000884543162 xtb: 6.5.0 (97a52f5)
C           -1.13641153896332        1.93243168983707       -0.02655995806630
C           -0.17338064830661        0.84880226028584       -0.30000996299415
C           -0.28056113877109       -0.42317680925989        0.14299266251958
C            0.79606833641387       -1.28195520390986       -0.27096862262129
C            0.85924274563587       -2.72911129189562        0.07328400607920
C            0.08815858033153       -3.68508830939103       -0.52470874107694
C           -0.83975804300857       -3.54077942494150       -1.63863273539456
C           -0.84630231019181       -2.38416471015254       -2.50180358346329
C           -1.74087247231366       -2.43129882493409       -3.51138991263334
C           -1.93568490904433       -1.38267475655701       -4.53085547143846
S           -2.62639255968631       -3.92411298948765       -3.43929296101520
C           -1.77043225538555       -4.47345150336358       -2.03218584295808
C           -2.05694936742895       -5.77482068032422       -1.40318667468469
P            0.60855217691759       -5.23746016719850        0.23321306112486
O           -0.50992513344507       -5.92909337376189        1.05738879250370
C            1.34537634125816       -6.32931600074507       -0.98651757100513
C            1.81775508748190       -5.81413980396527       -2.17033287478787
C            2.39659422395810       -6.65874081158802       -3.09981687557472
C            2.49854283712355       -8.00984971554021       -2.83096749940482
C            2.02455045973597       -8.51826188746971       -1.63709632911911
C            1.44579107312716       -7.67068182045028       -0.70894984353403
C            1.87411057664509       -4.58935067812750        1.31428689726069
C            2.72985558081384       -5.17271242883855        2.21274866986997
C            3.59305124961915       -4.36309403704164        2.92982602013361
C            3.58326634525604       -2.99053837212270        2.74100910924548
C            2.71755551505242       -2.40884608951657        1.83709103731057
C            1.84103117140322       -3.21461652004557        1.10148699583485
C            1.72894895996684       -0.63769379498083       -1.03883486499805
C            2.94562566063017       -1.24767134538268       -1.60763656220260
S            1.27525275113923        1.02357964804554       -1.25123595901504
H           -2.11416193371222        1.70045797273151       -0.45103208663098
H           -0.79515558404043        2.87294838909842       -0.46083163968339
H           -1.25952663675011        2.08230378305006        1.04701452911568
H           -1.10201208897288       -0.77204813644208        0.74806168700736
H           -0.18597194547008       -1.54586376007398       -2.36278119185303
H           -1.99516123732322       -0.39580754980113       -4.07001815536746
H           -2.85837920685964       -1.54986094493038       -5.08785839090539
H           -1.10888603682130       -1.37506063434028       -5.24229740119357
H           -2.96262241162998       -6.21655629089987       -1.82073057294267
H           -2.20266375174327       -5.66357127453778       -0.32839184138187
H           -1.23774739222622       -6.47590091599397       -1.56404072326059
H            1.72708163797385       -4.75761808353748       -2.36527246160368
H            2.76671635022032       -6.26260941402901       -4.03104977667204
H            2.95001612514382       -8.66902358272069       -3.55419417426409
H            2.10517348460100       -9.57220130728620       -1.42786859590068
H            1.06734881304963       -8.04783498610031        0.22812698626872
H            2.71742072997259       -6.24046909855682        2.35093359373793
H            4.27344335005267       -4.80284081690863        3.64041230661377
H            4.25833087545956       -2.36974962074298        3.30671319445115
H            2.70690564542641       -1.34360161723411        1.68870067684431
H            2.76511570711158       -2.28269902327627       -1.89850668019341
H            3.75970512243092       -1.23783363506230       -0.88286340507264
H            3.27494108813530       -0.70286169956347       -2.49260028299703
