43
 energy: -8.231021274844 gnorm: 0.000629218160 xtb: 6.5.0 (97a52f5)
C           -2.52263093273206        0.35760079420797        0.13216499220842
C           -1.08816457921862        0.01649946606626        0.09682079801756
C           -0.58125199987370       -1.23093769386447       -0.00655299328344
C            0.85580737463164       -1.28510071040405       -0.03529862804330
C            1.59752958521405       -2.56312741963287       -0.14833259192476
C            1.41458262347790       -3.45913469445870       -1.14938821462458
C            0.52573971636101       -3.37720054538594       -2.31268678197193
C           -0.27247584562866       -4.50578626632716       -2.72285130481505
C           -1.06266276024166       -4.27823626597501       -3.79273702312442
C           -1.97734434717188       -5.25869817025881       -4.40747394522347
S           -0.83460933533985       -2.64649348029875       -4.34964728065027
C            0.35863220995582       -2.29375471432151       -3.14201240123165
C            1.06291433237686       -1.00051964073731       -3.07759768638239
S            2.43126606190659       -4.92814691205798       -0.86286295938747
O            1.53960290857689       -6.12024014855258       -0.59543150883018
O            3.53550555093751       -5.00409723489525       -1.89256075231057
C            3.07399793062900       -4.26567476460681        0.67479958680619
C            3.95759003519949       -4.83772450068134        1.55561082052255
C            4.30244448276394       -4.14524658565413        2.70130440957097
C            3.75482533432674       -2.89909049209593        2.95275109919915
C            2.86791231372588       -2.33048398841785        2.06236349926920
C            2.52818080474441       -3.01497454943365        0.89655170755475
C            1.43558536022671       -0.04552961466583        0.03710498286658
C            2.87951145016562        0.25828820959410        0.00241266995777
S            0.20894570738336        1.17363802231703        0.16982212100260
H           -3.05660532576512       -0.27350157264260        0.84339860247678
H           -2.97730987646786        0.22231031448964       -0.84980416606970
H           -2.66590165223761        1.39654296326620        0.43014644413122
H           -1.19580356277601       -2.11445612258542       -0.07209928292500
H           -0.23537140896879       -5.45038687210398       -2.20424276606749
H           -2.63356999871714       -5.70287459082396       -3.65820590309017
H           -1.41865381936760       -6.06199802484711       -4.88852688812212
H           -2.60296838761920       -4.78348112830858       -5.16350648722214
H            1.24892178872613       -0.61371677982113       -4.08019861811208
H            2.02571337312904       -1.10264083682950       -2.57603991728186
H            0.46975548384077       -0.26079047404643       -2.53938035496345
H            4.36500287873364       -5.81251685484263        1.34884171943136
H            4.99408295326967       -4.58067692754549        3.40354490688975
H            4.02123871989594       -2.36986068560309        3.85266565077028
H            2.42581674616926       -1.37102887015080        2.26279681528139
H            3.46572451251502       -0.62521334681315       -0.25298438345744
H            3.22244327303907        0.62543841762790        0.97026535582981
H            3.09249032021321        1.02717329212114       -0.74104334266669
