45
 energy: -8.757130289933 gnorm: 0.000936274832 xtb: 6.5.0 (97a52f5)
C            2.73393140138501        0.79131750002442        0.56108037442574
C            1.37489998234865        0.22914849054178        0.31441405573244
C            1.25136992234018       -1.13340163471711        0.15225134041138
C            0.01124309030141       -1.75589456824022       -0.01577840995256
N           -0.09009754020575       -3.14563129944522       -0.17112421809578
C           -1.38742448276736       -3.82011164222225       -0.22884679290349
C            1.09641618844974       -3.99779648146868       -0.26985904067495
C           -1.12563360019813       -0.94343808879429       -0.01164892774459
C           -1.04501313463262        0.42418633550046        0.12676248157154
C           -2.29503849663269        1.23744274309147        0.10370714029808
C            0.21765315463682        1.04501518943997        0.27697087849898
C            0.28404259334537        2.49868835461189        0.40612635117116
C            1.21794835423628        3.29670568269340       -0.15286964585722
C            1.23318506504512        4.71476923625381        0.00694240845973
C            2.16200164122157        5.50896938582485       -0.56057392179147
C            2.23735708591492        6.95146050757744       -0.43254569898549
C            1.32029813409821        7.69087585946394        0.32057348809995
C            1.42526169075997        9.05866384575324        0.41791481536113
C            2.44757200103899        9.74446388714001       -0.23054473216659
C            2.54961816680462       11.14031148883344       -0.13270134822564
N            2.63397987327567       12.29623048032983       -0.05547135545935
C            3.36390479527699        9.01527437777623       -0.98151499142824
C            3.26117384262722        7.64806442440395       -1.08145270716362
H            3.36205588678705        0.07402163893785        1.09099658503560
H            2.68777339268588        1.69054529905617        1.17576445860531
H            3.23309249221388        1.03544019122418       -0.37706659206446
H            2.13962931671309       -1.73698102008643        0.18173703440026
H           -1.99585953060952       -3.53492297399452        0.62773198625605
H           -1.26798624123346       -4.90142720156386       -0.20996377665553
H           -1.90879172284038       -3.54792471387903       -1.14423014634027
H            1.78804907931327       -3.59463881239717       -1.00763672714066
H            0.82962876179508       -5.00663420699780       -0.58009514310805
H            1.59643668587748       -4.05430292504416        0.69594945692040
H           -2.09263541171645       -1.39494770066787       -0.13365338827850
H           -3.15055012080378        0.64297825249580       -0.21861593219109
H           -2.20224203884384        2.07708429596966       -0.58593138080747
H           -2.52068037226183        1.63247903501665        1.09472429967293
H           -0.50661008404379        2.97722441885592        0.95900593201340
H            1.97108930698115        2.85715260607477       -0.78155330465362
H            0.46250482545335        5.15187885256051        0.61503003379558
H            2.92080469007681        5.03961837463937       -1.16206329209608
H            0.52031523101946        7.18636441876647        0.83170421334005
H            0.71248032408137        9.61804592184520        0.99957274658661
H            4.15644803813110        9.53952414860772       -1.48780890648016
H            3.97468776255132        7.09843802621498       -1.67118970039427
