68
 energy: -11.077372986918 gnorm: 0.000702948265 xtb: 6.5.0 (97a52f5)
C            2.26656768208834        0.22759366750741       -0.59178777208937
C            0.78411282091669        0.18645192790249       -0.42542993940115
C            0.19645163883698       -1.05883179926126       -0.36487217171228
C           -1.15226485457856       -1.24400955777077       -0.04499284288070
N           -1.72319287740551       -2.52622692443238       -0.00677386284866
C           -0.91798021994751       -3.73032026003734       -0.21462739381909
C           -3.14981116718824       -2.72280896684451        0.25220213837803
C           -1.89793157684677       -0.10543101269269        0.26880159412471
C           -1.34287951422484        1.14203694767712        0.19352588273742
C           -0.01563685403621        1.35511780127766       -0.23288746601078
C            0.51395568805718        2.70940333852410       -0.40139176489598
C           -0.04289111085079        3.86486490810519        0.33274734772689
C           -1.41631444431905        4.19421853100876        0.31364997040856
C           -1.90977973648034        5.24689044314045        1.03795518680059
C           -1.06686002056830        6.05948550293290        1.80764889843385
N           -1.57355281941542        7.12038055498670        2.57464248713353
C           -2.99893451163283        7.44996673448843        2.57894253711944
C           -0.69725804927942        7.95621262703575        3.39589223433015
C            0.30828670722680        5.79375864630168        1.76041160702196
C            0.80550303940557        4.75052141012154        1.02936918368978
Si           2.62276396307906        4.59780526079867        0.72295814008050
C            3.44025975734652        6.28699140083996        0.70140322568064
C            3.39261520325795        3.46761905516967        2.00369213389991
C            2.70119810792842        3.81441585494656       -0.95095383235319
C            3.75498038824260        4.02818087706508       -1.79513993199404
C            3.82134216087001        3.40529363271578       -3.04958130549630
N            4.90959285411507        3.62330364439449       -3.90893747168227
C            5.98183553695609        4.55729734755228       -3.56399089299636
C            5.03026845401473        2.91838391488735       -5.18555581397725
C            2.76493872691806        2.55938842620828       -3.41418539475998
C            1.71063545138665        2.33786702026006       -2.56963414940338
C            1.64820555391697        2.94899981943971       -1.30100789873376
H            2.73823124243093       -0.60175699311193       -0.06363553005610
H            2.69094729129988        1.14388595958808       -0.18380148771905
H            2.54814121435102        0.15082178378235       -1.64176193530493
H            0.81023341581083       -1.92207870783056       -0.54457738487636
H           -0.08619481870642       -3.74820567808743        0.48657068225947
H           -0.52967586479691       -3.74783280145824       -1.23090132442345
H           -1.50992602793440       -4.62915355027293       -0.05795119422535
H           -3.37894904137752       -2.46653085340130        1.28449424373678
H           -3.43933306139671       -3.75723881998262        0.08167089378954
H           -3.74017985390038       -2.09525471448594       -0.41214537233630
H           -2.92033288755089       -0.21632002550306        0.58340712000186
H           -1.94339865605406        1.97796527271028        0.49086170868289
H           -2.07327448286796        3.66005550948756       -0.35003470837575
H           -2.96240249443835        5.46362760516908        1.00736328829703
H           -3.32928400934658        7.68362896182528        1.56914348641127
H           -3.19995639936678        8.31311008994224        3.20931209755434
H           -3.57453077437108        6.60859730377194        2.95894009619699
H           -0.11399423945919        7.33393701285734        4.07147633037538
H           -1.27241370870522        8.65754129596388        3.99604229283395
H           -0.02151111975439        8.52359175753301        2.75934466787096
H            0.99313589808771        6.43484455500835        2.28353255013323
H            3.34939461684612        6.76313854954274        1.67288099682505
H            2.96516698538551        6.91698904682194       -0.04468927542878
H            4.49467498457002        6.19233706234241        0.46054825908264
H            4.43318233511726        3.27844929194702        1.75764028683864
H            2.85993926102824        2.52195185962742        2.03138765001921
H            3.34055794696445        3.92697922113212        2.98622976251494
H            4.55046555355656        4.67711276431734       -1.48021793733317
H            5.56556014862103        5.53689778634975       -3.33875286394511
H            6.68347181537580        4.66978235805737       -4.38723980666749
H            6.52672617380858        4.19285333343071       -2.69570870736660
H            4.96746300213366        1.84408175965943       -5.02502260066699
H            5.98373678857066        3.13224621093183       -5.66334504857554
H            4.23264714320555        3.22757502318255       -5.85791325956808
H            2.78172068742158        2.08119028283430       -4.37677485868634
H            0.90248495764891        1.69453971207731       -2.87140578039823
