94
 energy: -19.204916728090 gnorm: 0.000406738162 xtb: 6.5.0 (97a52f5)
C            1.74919602109055       -0.87148641183610       -2.39725462593381
C            0.76837389109307       -0.48779577723117       -1.34527847178471
C           -0.51565304440891       -0.99110838520680       -1.40286441832817
C           -1.48150340896402       -0.69249892894117       -0.44232228295193
N           -2.82047932199308       -1.18737727099089       -0.56627270104741
C           -3.90010211496600       -0.64695613376796        0.21290569023151
C           -3.89607314907267       -0.69972379145791        1.60488433937580
C           -4.94203106825070       -0.17596314528162        2.32734455696845
C           -6.01173728204978        0.39595661424560        1.66970082022468
C           -6.04224830477145        0.42628412596352        0.28872856458017
C           -5.00456618960973       -0.10383424561527       -0.46024689735182
C           -4.99029911041989       -0.11517417296940       -1.99966871533106
C           -6.41800753095366        0.01595920907552       -2.56667294445755
C           -4.14536367402817        1.07137292898372       -2.49307716844401
C           -4.32684158353474       -1.42148042624893       -2.47236218781922
C           -4.73012612146481       -2.11834502713030       -3.59952863841376
C           -4.09830112616320       -3.28738648525780       -3.97823777479255
C           -3.05062463711216       -3.78340325778823       -3.22969231120661
C           -2.62769030428828       -3.10410754269325       -2.11173101795482
C           -3.24131174681065       -1.91257380623131       -1.73253918049811
C           -1.11625945385147        0.16593353250535        0.59261892414739
C            0.15147046927698        0.68486155413077        0.66715746696666
C            1.11409554820027        0.38610837903269       -0.29707057178398
C            2.45449905203734        1.01603289471641       -0.20113604508294
C            2.93373600273036        1.77784451403173       -1.24872103703049
C            4.16866462313683        2.38543871720411       -1.13355287798427
C            4.67798322925979        3.25372299045685       -2.22156781018689
C            5.14624377189543        4.52751616581150       -1.89904408942638
C            5.57388131611261        5.39847670234024       -2.86861666170241
C            5.56578724448451        5.03519805288259       -4.21348509407351
N            5.93394926898142        5.96692826859589       -5.23792021939113
C            5.66748167349121        5.69659515069555       -6.62389781614608
C            6.22487119212817        4.59838800377973       -7.27475817249075
C            5.95495498480434        4.36137595450239       -8.60186171830178
C            5.13495599907952        5.22426527944314       -9.29971442680696
C            4.59772311043353        6.33197296416048       -8.67237486341532
C            4.86183663913321        6.59540464960991       -7.33837916372369
C            4.29778996016684        7.81466391501384       -6.58637618288138
C            3.89271300845332        8.93139573641228       -7.56906818493303
C            3.05662067208865        7.37202232069822       -5.79319806835812
C            5.36405244500522        8.31295477271680       -5.59399431326835
C            5.56712396528133        9.65115360235605       -5.29968015934963
C            6.54336011590514       10.04331088606142       -4.40391479265087
C            7.34068878312976        9.09942230097597       -3.78962125961354
C            7.15099901230347        7.76467115425212       -4.05910645303007
C            6.15281863915478        7.35515995971624       -4.94002929693236
C            5.10627932008364        3.75809680126980       -4.53256907406658
C            4.68554564086160        2.85833896553346       -3.57350391516752
C            4.25347504565178        1.49831043345665       -3.99851520213437
N            4.88665627069589        2.24940683364827       -0.01603165260679
C            4.32424425117715        1.50339367195151        0.91042991346071
N            3.16736799544919        0.87740568135116        0.91877752730435
H            1.59529864342323       -1.90263149883323       -2.71806006082628
H            2.77309934098628       -0.79427009575062       -2.03051238512288
H            1.64879041600601       -0.23090723997788       -3.27388204011951
H           -0.78041554612091       -1.61649429014864       -2.23391298844050
H           -3.07402290608457       -1.17924373526202        2.10737304975500
H           -4.92769362100571       -0.21465946453962        3.40439423132093
H           -6.82971165965919        0.81228467290767        2.23487387245455
H           -6.88825009293898        0.86928295936247       -0.20507483617065
H           -6.88338046857982        0.94872657398520       -2.25227973554887
H           -7.04500963585350       -0.81067886594657       -2.23448812312485
H           -6.41092284114447        0.02656807290047       -3.65537395345887
H           -4.57309028872458        2.01726861456369       -2.16267655200281
H           -4.08942275390779        1.08268385716273       -3.58103529446844
H           -3.12987402933824        1.00683566911574       -2.10412899578897
H           -5.54602814166618       -1.74967483774521       -4.19465031258383
H           -4.42877992295179       -3.81725920117306       -4.85681294052355
H           -2.56643388969959       -4.70182935016415       -3.51918687948120
H           -1.82801577034377       -3.49459370071864       -1.50652226259339
H           -1.84763551829261        0.45279591407122        1.32483745308472
H            0.41588331105837        1.35432259876579        1.46734007123532
H            2.32859571032817        1.93576925353693       -2.12217273796795
H            5.14439953297638        4.82817336951862       -0.86566100935899
H            5.88561718417151        6.38822221784099       -2.59101599802279
H            6.88634955215379        3.94824790147950       -6.72884144956147
H            6.38453016014428        3.50535914056614       -9.09629026321855
H            4.91928401588273        5.03750297819211      -10.33916073048733
H            3.96545242839934        6.99491306221105       -9.23502301212180
H            3.12472888349773        8.58889026383447       -8.26070803952500
H            4.75154155249598        9.26928658092429       -8.14789104299120
H            3.47412516056061        9.78767062687843       -7.04270251692363
H            2.28335112909195        6.99322980355413       -6.46060508667811
H            2.64106698522200        8.20384908486781       -5.22551959473101
H            3.31285195180822        6.57958600236022       -5.09100304394271
H            4.95913204035472       10.40212873412555       -5.77103423536722
H            6.68783275674488       11.08977740835386       -4.18978386131918
H            8.11200003991529        9.40768697709243       -3.10273705884399
H            7.78508987823263        7.02187923601708       -3.60701105675589
H            5.05622373505858        3.46276098819426       -5.56292778609521
H            4.83105036286929        1.15583098353991       -4.85822124629998
H            3.20094942391644        1.49501805777242       -4.28345658036760
H            4.39830826691503        0.77018310247685       -3.20000025307349
H            4.90523463417839        1.39190869488707        1.81607594185525
