31
 energy: -4.316151433430 gnorm: 0.000647727386 xtb: 6.5.0 (97a52f5)
C            1.28880609796542        1.85577818003754       -0.61656714345502
C            0.53047922937279        0.63607615978557       -0.71586265042313
C           -0.75623562696367        0.52448557207921       -0.61600003574338
C           -1.49701569617714       -0.65254441196592       -0.71049897169723
O           -2.77281919905565       -0.60785645656447       -0.60258361787043
C           -0.83474295393750       -1.83035119144023       -0.92942539751261
C           -1.34096887253503       -3.15124840579874       -1.02057084162417
O           -0.61311217686951       -4.06502809321078       -1.38835951035346
C           -2.69756110468147       -3.40594166242024       -0.67064850910484
C           -3.27364803014365       -4.54992467818687       -0.71714898177514
C           -4.61489675180755       -4.84812113033015       -0.37341697991881
C           -5.48618292173190       -3.87775193526654        0.04556743977930
C           -6.72646132347840       -4.16641275232073        0.37339057591707
C           -7.17551028505744       -5.44724955624600        0.30040025908486
Cl          -8.79974152058855       -5.82972572135994        0.73085301936168
C           -6.32568238753557       -6.42252892326869       -0.11734003901951
C           -5.08574091822281       -6.13214435249909       -0.44307779370004
Cl          -6.17773034344795       -8.94544971817577        3.32137099420601
C            1.42996071076657        3.67820983574609        1.72770645642421
O            5.09069569063363       -5.94991164717720       -0.77108059530436
O            1.09719564484309        2.47972099797584        0.55548304628258
H            1.01050526799809        2.53188909939081       -1.42723240250718
H            2.35231357219438        1.63872401395552       -0.73296728431996
H            1.85524940681988        4.81805759150529        2.86934737122923
H           -2.49768299588795        5.92679114933067        2.03815132971909
H           -4.31831202583544        0.85395363810925       -1.05857452063409
H           -3.28333062309958       -0.17627702705956        1.46982186267397
H            1.04466941177337       -5.10767313458040       -1.73924638040096
H           -3.26453515173354       -0.89546931531227       -2.73626574485186
H           -9.05660419131985       -0.00779107555289       -4.51921916264695
H          -10.31763993218052      -10.87397504839117        2.10701420861647
