33
 energy: -6.526088389060 gnorm: 0.000884468150 xtb: 6.5.0 (97a52f5)
C            1.20956241406351        2.53719428551740       -0.40212259090112
C            0.55623610524094        1.21998806874280       -0.21358191183293
C           -0.79278008212858        1.10781772547285       -0.28761913742482
C           -1.43203692611982       -0.13581895974824       -0.10328435176646
O           -2.79290346012150       -0.19788650071990       -0.16573150114992
C           -0.64157929771671       -1.26673848279658        0.14854293198432
C           -1.23635185799322       -2.58900912594252        0.36565758140057
O           -0.58922503971894       -3.53181181754053        0.79632928486154
C           -2.64200784617254       -2.82804586018806        0.06502055721957
C           -3.19143919652063       -4.04064175785349        0.19178689859419
C           -4.57389219898422       -4.37640188078945       -0.07788363820280
C           -5.52443602385870       -3.41435795772969       -0.42370762174206
C           -6.83273124008591       -3.76146362815463       -0.67256995474109
C           -7.24617361502790       -5.08514280072532       -0.58379314876737
O           -8.52987766174595       -5.51486064625506       -0.82286954873689
C           -6.29717015824892       -6.07480211351740       -0.22512824558983
O           -6.72321950996476       -7.38059022311896       -0.12798787315390
C           -4.98831947791438       -5.70830541256925        0.01621680921820
C            0.80002823018774       -1.10335625741557        0.19786968968535
O            1.53225430469154       -2.07062897055010        0.37769567827267
O            1.36295756837707        0.14841402916962        0.02852061837437
H            0.81937133004822        3.27346442030888        0.30069310085252
H            1.05369913294196        2.90750877657480       -1.41535998338823
H            2.28289768699285        2.44714193715746       -0.23610018796781
H           -1.38383345031476        1.98239827108231       -0.48335858218866
H           -3.17531757222762        0.68168487005986       -0.33154472708050
H           -3.24036119708251       -2.00590977407894       -0.26916604800926
H           -2.54575383674798       -4.83656534572985        0.52092659501928
H           -5.23424783142771       -2.38089765985739       -0.48767168601524
H           -7.54919477494207       -3.00469937758644       -0.93866785293107
H           -9.10375095431791       -4.76770098626992       -1.06626113979344
H           -7.67785550820115       -7.41145739452731       -0.33299246063062
H           -4.28406805496242       -6.47449945042257        0.28327244652770
