32
 energy: -6.390799703149 gnorm: 0.000625827957 xtb: 6.5.0 (97a52f5)
C            1.22754947946297        2.54287322560446       -0.36393914011636
C            0.57251187606226        1.22340698275902       -0.19781537571124
C           -0.77792831299763        1.11821038612473       -0.25818122818696
C           -1.42093754577871       -0.12563720987072       -0.09028255017367
O           -2.78207202778624       -0.18183546020942       -0.14413061903708
C           -0.63301619399788       -1.26373358416338        0.13772284630464
C           -1.23140049826926       -2.58510215947416        0.35352864387718
O           -0.58776465417910       -3.52807413910508        0.78599764057248
C           -2.64042239613534       -2.81998997378831        0.04834154790174
C           -3.19012995945021       -4.02972181073630        0.16942379239888
C           -4.57720610519357       -4.36714086229416       -0.10937697857260
C           -5.50533804917729       -3.42036684157371       -0.54446725527742
C           -6.81118780552973       -3.77900115620511       -0.79907479530975
C           -7.22468174668698       -5.07942797548509       -0.62802090078432
C           -6.32548829749671       -6.05529191211687       -0.19392189406154
O           -6.69627770429544       -7.37461740678568       -0.00916034350247
C           -5.00882016273510       -5.67709149884999        0.05919747868570
C            0.81028894732902       -1.10961354453894        0.16451341191065
O            1.54092129021128       -2.08438875585433        0.30757286526790
O            1.37700546525634        0.14359772411959        0.01219378221654
H            0.88023798338382        3.24872195814054        0.39079566147246
H            1.02215358756813        2.95915670667542       -1.35028626145856
H            2.30729759551891        2.43770193284042       -0.25833612477358
H           -1.36714858963013        1.99898749308228       -0.42979489902560
H           -3.16133637221511        0.70317171868543       -0.28977301696778
H           -3.23752957247002       -1.99317653570435       -0.27632709093208
H           -2.54863317224987       -4.82700808433549        0.50306341643046
H           -5.20193635412785       -2.39828558148887       -0.68211977053368
H           -7.51466007780729       -3.03408860180766       -1.13463675048319
H           -8.24497979205775       -5.35282609711129       -0.82801122263879
H           -7.63714524146599       -7.50376832587891       -0.22522375091155
H           -4.32065559306043       -6.43134061065032        0.39334888141940
