31
 energy: -4.526496299473 gnorm: 0.000572881410 xtb: 6.5.0 (97a52f5)
C            2.16269347884290        1.74063441624554       -0.26956449488373
C            1.22815417376701        0.65419076684103       -0.40659058845081
C           -0.05865983153797        0.75889184117694       -0.51483262428326
C           -0.96391753933007       -0.28574787807409       -0.63966798311159
O           -2.29854980146363       -0.01752420028040       -0.73859974682474
C           -0.50734436587920       -1.57102153328447       -0.66221574942295
C           -1.22784715698297       -2.78687944874877       -0.74976489777464
O           -0.63528762373958       -3.85609166453859       -0.78875592280407
C           -2.68573307011241       -2.75430833029353       -0.78582834555931
C           -3.41622797724313       -3.83544899505126       -0.82601517222917
C           -4.83487063104839       -3.91227512796003       -0.84662497091156
C           -5.47196524256042       -5.12032673142878       -0.87566969163296
C           -6.78831991161123       -5.18787679957131       -0.88590366893971
C           -7.51751607408372       -4.08591846444101       -0.86915096017453
C           -6.93578366430679       -2.89946281368702       -0.84282248962407
C           -5.62187570670935       -2.79620017446569       -0.83103174073090
Cl          -8.77272190388591       -3.71004801226682       -4.91630792483036
C            2.17049453756124        3.77597185441073        1.91355207436417
O            5.19499708263245       -5.84156370248073       -0.48414611586498
O            1.89095367395840        2.51450058021581        0.79071156678999
H            2.14962009530117        2.35794273172199       -1.16956664900752
H            3.17500488736525        1.34551218427295       -0.16796393398630
H            2.36647852948478        5.03457831587856        3.00210449147359
H           -2.45221304519269        0.94265882846305       -0.71933653561462
H           -3.16832864688215       -1.79420207799225       -0.76898988395889
H           -4.90829861442872        2.49871262585581        8.02931405147942
H            1.02202280700604       -5.01261875374541       -0.85119220642048
H           -0.22724573494839       -7.78776199952868        2.12190590887994
H           -8.30155452592900      -11.26526789902025        3.72673623523338
H          -13.53706574074130       -7.56807904161755       -0.87991327546393
H          -12.06787245772292       -0.26764049594355       -5.04474875702821
