62
 energy: -11.741975106787 gnorm: 0.000740442770 xtb: 6.5.0 (97a52f5)
C            1.19869801350862        0.40633655367203        0.37986243688622
C            2.49679346598055       -0.06065739459491       -0.19352294645786
O            2.95835784607677       -1.13081717774878        0.13924792265884
C            3.20747498061537        0.79199345069692       -1.16147097198714
C            2.69886606107528        2.05522863208237       -1.57603221153873
C            3.38151506503594        2.82889611479768       -2.44947961519813
N            4.59281713996270        2.39150364221430       -2.95555942495498
C            5.51773619191157        2.96202822984767       -3.82112830178727
C            6.59017167416628        2.09868162064648       -3.98584666645892
C            6.35380210616167        0.93809498917165       -3.23520293230635
C            7.21095960001439       -0.25257019147251       -3.18078824714733
C            6.66312520498110       -1.53399926099686       -3.11917399988214
C            7.47309016066485       -2.64680517574629       -3.09235953886431
C            8.84566422078989       -2.50594623104162       -3.12796947761990
C            9.40671864290503       -1.24667263145782       -3.19410600831746
C            8.59992541372611       -0.13166890526581       -3.22303601228553
C            5.10579033181556        1.14922823357604       -2.58392384805463
C            4.40307734848317        0.35281994969190       -1.66873972443207
C            7.57522540584644        2.71740929295009       -4.93678261969914
N            6.91705591741450        4.00384462591093       -5.27502557107955
C            7.49481594552301        5.06786839670813       -6.10367119353174
C            8.37038110023200        4.53775842878425       -7.22954678120559
C            8.94403289556123        5.63347006794378       -8.11652796282134
N            9.81258433940770        5.11586873055766       -9.15630535945009
C           10.03964390504080        5.81608019165039      -10.32933698707743
O            9.42845843841382        6.84581529138867      -10.56118523096185
O           10.97945693666361        5.26008125480379      -11.16225914936330
C           11.22581085251100        5.99238828478795      -12.39482831851292
C            9.94332196386968        6.05802829169675      -13.23380399845229
C           11.74484481132463        7.40088178007084      -12.07860115638236
C           12.30178048341442        5.22033339710473      -13.17397308561415
C            5.70148356468342        4.18489949640537       -4.61334486058607
O            4.94903267571481        5.14291522578431       -4.67021105711883
H            0.80086276816612       -0.34507889211789        1.06063951980110
H            0.45937176110621        0.57206719131506       -0.40323604359546
H            1.32790640076696        1.33119849705613        0.94144778041342
H            1.75935848702900        2.39915141217557       -1.18161401690586
H            3.01615359916100        3.78888524957203       -2.76776636717334
H            5.59350599993193       -1.64793904177693       -3.12441805746451
H            7.03443164355682       -3.63024927066656       -3.04922334472943
H            9.47829559033361       -3.37808883713407       -3.10758615771442
H           10.47831236164185       -1.13602619859303       -3.22409252412667
H            9.03776839304045        0.84997790401635       -3.26699218135348
H            4.80458785359358       -0.58749025381194       -1.34065619625855
H            7.71173793233981        2.10424936696228       -5.83145478521705
H            8.54359835044543        2.89880834209147       -4.46341375925990
H            8.06546201285431        5.73430184995302       -5.45088783335216
H            6.66978718732263        5.66231806796108       -6.50685560972111
H            7.79493612591048        3.83514758939890       -7.84223277599991
H            9.19044349295177        3.94696305231801       -6.80725385038175
H            9.50852277279268        6.35878188704233       -7.52024423267465
H            8.13837576304593        6.19799343802259       -8.59872717551492
H           10.38031430290712        4.30508363230456       -8.92033394184613
H            9.16673751005520        6.60239518544400      -12.70035130755828
H            9.57068219611510        5.05543700396819      -13.43493171716324
H           10.12035325298750        6.55779702793053      -14.18484150719796
H           10.99718928218780        7.96761974696389      -11.52745096495788
H           11.98398347616148        7.94607012455199      -12.99025709532704
H           12.64170424360825        7.34510103053707      -11.46458855200876
H           11.96051063272460        4.20956481662883      -13.38935589903266
H           13.21359742806542        5.14445179725941      -12.58460916610227
H           12.53899647570306        5.71320107600461      -14.11552933797453
