32
 energy: -6.385410177244 gnorm: 0.000741617986 xtb: 6.5.0 (97a52f5)
C            1.22848109692089        2.54107330519005       -0.30697946197481
C            0.56888705535582        1.22127177228070       -0.16300051257486
C           -0.78428441149590        1.12803505151372       -0.16817265468503
C           -1.42730433363182       -0.11757435005110       -0.01620501702782
O           -2.78846816227883       -0.17415394770308        0.00934762532655
C           -0.63895793815185       -1.26712625385979        0.12382826908603
C           -1.24247738612041       -2.58953709009642        0.32256720928542
O           -0.61329946512813       -3.52229011114640        0.79877855462220
C           -2.62995292188389       -2.83340964185442       -0.05350333000761
C           -3.17305953062469       -4.04958672510008        0.05356225915942
C           -4.52683862017723       -4.42085604655627       -0.28794109298411
C           -4.96773575096581       -5.71104557838601        0.00389618199823
C           -6.24511338682154       -6.11523959160986       -0.29828269022879
C           -7.12400267532296       -5.23751195332109       -0.90608973936696
C           -6.72257407439776       -3.96237729170433       -1.21122368522422
C           -5.42647788875857       -3.52225137516835       -0.91710442650552
O           -5.02794356864929       -2.24741831092472       -1.23765587388666
C            0.80440029027426       -1.12656104999126        0.08645079095683
O            1.52752059417875       -2.11583902055848        0.14328714890772
O            1.37410861531845        0.12829249034213       -0.03493677910420
H            0.82180689870750        3.26235371060347        0.40262399263215
H            1.09525941418321        2.93407172725099       -1.31508497077762
H            2.29794652527905        2.44508398564663       -0.11928194949581
H           -1.37437137849994        2.01825991597533       -0.27683408537250
H           -3.17570637173930        0.71484178718750       -0.08249962664436
H           -3.22548330741465       -2.01682856727896       -0.41330772451913
H           -2.53794959075452       -4.82850537557392        0.44067994571877
H           -4.28990670082033       -6.39871492293743        0.48025803465905
H           -6.56494459373988       -7.11665339445643       -0.06019427760313
H           -8.12610278084435       -5.55751290531919       -1.14096078000642
H           -7.41035741431449       -3.28497544797949       -1.68485182031671
H           -5.75124823768111       -1.75829479441707       -1.66974951404673
