33
 energy: -6.694732994757 gnorm: 0.000872922013 xtb: 6.5.0 (97a52f5)
C            1.13866104363022        2.58234259068221       -0.23785105914844
C            0.50281149930781        1.24737855435180       -0.10927692464239
C           -0.83906388676264        1.12279341814290        0.05834554683248
C           -1.43653062736315       -0.14700452844528        0.18849697963158
O           -2.77518576375598       -0.25949099145179        0.40564975482331
C           -0.61953781395171       -1.28163671666812        0.11353218722301
C           -1.18362135605212       -2.62944723163122        0.24302181778828
O           -0.51407298078846       -3.57756864059623        0.61841478343673
C           -2.58329449632155       -2.86945075746392       -0.09350892860122
C           -3.10711314681961       -4.09679240583071       -0.04782448973779
C           -4.47571046540361       -4.45344858110135       -0.38584980223206
C           -5.02362568546124       -5.62717903673400        0.13110951161542
C           -6.31885463523561       -5.99211921677643       -0.15308194799074
C           -7.10132697721922       -5.19628997115044       -0.96514603643917
C           -6.57873037904980       -4.04062688656282       -1.49794778601824
C           -5.27845194672700       -3.66789994264372       -1.22400964550240
N           -4.75324192831222       -2.45892272054661       -1.86312594252223
O           -5.18855346298539       -1.36080567612007       -1.49595510934002
O           -3.89056485104320       -2.57803604755359       -2.74233047319083
C            0.80433393981443       -1.10371991883145       -0.08476604248524
O            1.53844573424764       -2.07908704992753       -0.19417811823438
O            1.33312065423097        0.16908970665929       -0.17385412944279
H            0.43084329885381        3.38877852485890       -0.04477721248945
H            1.54381499605290        2.71158848374163       -1.24161688538502
H            1.96213518735226        2.67326732373618        0.47070545110371
H           -1.45482598227057        2.00117892487467        0.10132301040420
H           -3.19944438095202        0.61381780109582        0.46442187246680
H           -3.19747036213182       -2.03467265480094       -0.37892965924048
H           -2.45862839934528       -4.89097631538674        0.28314105770702
H           -4.42028265467770       -6.24789890779703        0.77208438159002
H           -6.72578337734967       -6.90042876888534        0.26191373346921
H           -8.11761875007599       -5.48165265298815       -1.18507403495105
H           -7.17664204343637       -3.41383970824988       -2.13894586049771
