39
 energy: -7.305495964916 gnorm: 0.000666861278 xtb: 6.5.0 (97a52f5)
C            2.48717794978622        1.49348355997410       -0.05788879699393
C            1.28501623537343        0.62204397893806       -0.11935220321993
C            0.03175593071755        1.15670110150484        0.08451714840543
C           -1.12502077926855        0.37226245864015        0.03512625113168
O           -2.37761152235752        0.91833060025038        0.23622014534699
C           -0.99748294544842       -1.00457002464229       -0.22812808600472
C           -2.23550621967021       -1.86811908188972       -0.28542579633792
C           -2.43033263472415       -2.47893171981722       -1.67429128279024
C           -2.22422465766132       -2.93800519827227        0.80777404922325
C            0.25629556032547       -1.53844542558957       -0.42209611243968
C            1.40922720965322       -0.75628949362700       -0.36432567483156
N            2.66360661178408       -1.35590628851398       -0.53254984972631
C            3.52056511703060       -1.41042316171214        0.41885774932349
C            4.82472482448721       -2.00385294897160        0.28859840440747
C            5.22975150124846       -2.57479192334151       -0.91958286389258
C            6.46980590217254       -3.14653309154751       -1.04987099918494
C            7.36266502782258       -3.17061614546667        0.02795481707381
O            8.61948398844708       -3.73785932733365       -0.07370991364666
C            6.95554984747524       -2.59723236723598        1.23783882514670
C            5.71566856729487       -2.02573515958193        1.36615563549825
H            2.29085560837648        2.46475945867090       -0.51328777646301
H            3.32503794455861        1.04241476068856       -0.58973777785108
H            2.79304012527103        1.66070964003285        0.97525323102744
H           -0.06056668384810        2.20792007046838        0.28481102000165
H           -2.30072645689667        1.87796990006501        0.40769520653294
H           -3.09063170219037       -1.19696823754550       -0.09027881609274
H           -1.60825553332305       -3.15052115903353       -1.92097668342551
H           -2.46451785055331       -1.70765508233619       -2.44485367699931
H           -3.35485821118582       -3.05470157118825       -1.73116553089496
H           -1.40521210863289       -3.63997568882258        0.65362311666084
H           -3.15152349980746       -3.51218082034946        0.81561917882971
H           -2.09385876159385       -2.49295611463176        1.79489438607715
H            0.36361575338553       -2.58991105379553       -0.61459666404085
H            3.24331089829141       -0.99247177116893        1.37080010162301
H            4.54734481721959       -2.55923861160306       -1.75128979993483
H            6.76810283495122       -3.58270930792204       -1.98621117316460
H            8.75294169627511       -4.09430642278696       -0.97441269222730
H            7.64009332754539       -2.61503218302404        2.06693122946653
H            5.41608228765996       -1.58756614748638        2.30271167439098
