96
 energy: -19.017303853222 gnorm: 0.000446896231 xtb: 6.5.0 (97a52f5)
C            0.70573157997450        0.11303201060089       -0.11980695996074
C            2.18654348174312        0.01556439611566       -0.04865601035473
C            2.81743471965265       -1.21324219824413        0.00153224909022
C            4.18925373002312       -1.31834734850250        0.06581928243060
C            5.00162993613915       -0.19476428139772        0.08087320969651
C            4.36504623672058        1.03723666372590        0.05483908714258
C            2.98043453081287        1.16667116323050       -0.00316886007380
N            2.37907974472243        2.48138448000227       -0.01150120278443
C            2.41536380773436        3.26161729760232       -1.19976505102640
C            3.04085152499684        2.75392704219843       -2.33743949044358
C            3.10196531055467        3.48025018860610       -3.50258742463271
C            2.53172338934527        4.73326782888871       -3.55376857720000
C            1.90133122702728        5.24615629685971       -2.43811114083686
C            1.82826870168726        4.53167594112795       -1.25121881427364
C            1.09721741588218        5.13763543856662       -0.04477868543334
C            1.76719541166173        6.48072721338292        0.31167517602840
C           -0.37690191551198        5.36755492012332       -0.43323214102793
C            1.13982977600253        4.23037793545601        1.19274843776940
C            0.54349871616044        4.65134750364014        2.37244960284055
C            0.57281414526074        3.87672989359392        3.51447522765121
C            1.20977734343798        2.65532821387051        3.49707990210299
C            1.80430103275181        2.21648915969824        2.33834710996595
C            1.77321155650188        2.98202062172141        1.17368062438624
C            6.54133678101289       -0.20481561587932        0.11788251677371
C            7.04122960722441        0.54603589805382       -1.13519522316564
C            6.98510023617799        0.54121102589489        1.39354641601570
C            7.21406958068922       -1.59021417888513        0.13202257261095
C            8.60035936722857       -1.63439164645090        0.13616822744580
C            9.31397788130114       -2.82902519369815        0.16494637355906
N           10.75920209105478       -2.80677035288310        0.13218814798051
C           11.43465584024006       -3.10750320068682       -1.08257458791188
C           10.69421674716904       -3.36571238516211       -2.23518297593997
C           11.30941392598864       -3.68222285210292       -3.42264886912224
C           12.68444712541183       -3.74371669290630       -3.48114030449051
C           13.43158685804764       -3.48013029468616       -2.35088170619324
C           12.83248095544409       -3.15423612367004       -1.14281044711157
C           13.70765870099753       -2.84851000681870        0.08075019170304
C           14.54434792837362       -4.10080423260206        0.40974214940622
C           14.63653835119588       -1.66682036538959       -0.26682086941236
C           12.88446616472141       -2.47362741485627        1.32145878452536
C           13.53482837890968       -2.13804278697598        2.49997342333317
C           12.83579935081372       -1.80536573287843        3.64271147703842
C           11.45824561870160       -1.80779913559333        3.62786923042085
C           10.79260632915724       -2.13999986064880        2.47223929394251
C           11.48438077986647       -2.47095044658235        1.30817842077230
C            8.61775225277409       -4.04175263235961        0.20920977448889
C            9.34319326392296       -5.33770841539272        0.24763278222838
C            7.23639989669955       -4.00078952140617        0.19007790683626
C            6.55001974218571       -2.80732756005856        0.15074610059049
S            4.77847257348790       -2.99918753198018        0.12716047505251
O            4.39147890615957       -3.68820581428182       -1.17008671797021
O            4.34514784310229       -3.60894964705528        1.44906317758232
H            0.29405699024027       -0.64671063180727       -0.78511863218431
H            0.39737359703583        1.08859567594482       -0.49706061717556
H            0.25992954971124       -0.02203836657790        0.86613224705080
H            2.22424017316513       -2.11271231889766       -0.01175782676565
H            4.94382360649553        1.94183194488815        0.08133250110625
H            3.48100929726890        1.77389413296059       -2.29584844480379
H            3.59278307892520        3.07200470747932       -4.37108614204284
H            2.57513976954552        5.30971442395797       -4.46334698060083
H            1.45207608405066        6.22235405445658       -2.49375213710451
H            1.74210533634669        7.17374944322857       -0.52739729282088
H            2.80936263718345        6.32301302984930        0.58660907314424
H            1.26836981479235        6.96373670863039        1.15013002451939
H           -0.46119526345286        6.02822756927503       -1.29447712493775
H           -0.93743687509434        5.81782106181097        0.38428770756358
H           -0.85397858357167        4.42177875701067       -0.68724422690163
H            0.04562326554192        5.60488947708143        2.39989026522704
H            0.10135432235122        4.22722137848343        4.41800586058007
H            1.24018988172858        2.04693628862271        4.38632592873024
H            2.30311752574500        1.26409069861668        2.32144593235745
H            6.63405825814452        1.55407495993528       -1.18778532773548
H            6.74039513811541        0.01627851956035       -2.03825816802883
H            8.12593522631798        0.63442666314948       -1.14518350634475
H            6.59336652367094        1.55638855045537        1.42107560468177
H            8.06954797249294        0.60841992508875        1.46034989265199
H            6.62667782507402        0.01993934518779        2.28040561351283
H            9.16738457180021       -0.72224169006615        0.11506008654771
H            9.62124199529428       -3.31600298365903       -2.18579721795158
H           10.71971116124066       -3.88298850364717       -4.30228437648195
H           13.17503587970820       -3.99460439025715       -4.40737048269820
H           14.50487420846129       -3.52884685875552       -2.41043003123929
H           15.16811956985747       -4.39393998626436       -0.43303695919986
H           13.89267135185256       -4.93898883718491        0.65330514254625
H           15.20024363036643       -3.92671886725155        1.26112205563375
H           15.26087980293053       -1.89219165740990       -1.12966185145682
H           15.29905266792373       -1.42358724983794        0.56192580514227
H           14.04949548668209       -0.77924845870491       -0.49959566834589
H           14.61053561636045       -2.13996395655801        2.52685050800586
H           13.36573582758136       -1.54608727279022        4.54462830029140
H           10.90603102425630       -1.55078002330129        4.51714513321091
H            9.71756983683964       -2.14757314310242        2.45871149597060
H           10.38243402807447       -5.19457359535977        0.54521743497881
H            9.33721305576813       -5.81505474385790       -0.73279650961877
H            8.88370971464603       -6.02247601932847        0.96130056765588
H            6.68028093718960       -4.92359542393515        0.20631105127370
