42
 energy: -5.350889911216 gnorm: 0.000615942823 xtb: 6.5.0 (97a52f5)
C            1.13280616972590       -0.00759964053214       -0.03564528721066
C            2.61857159976150        0.04470737427370       -0.02852099961948
C            3.33521783992518       -1.11100368526143       -0.02283274620814
C            4.74628257953053       -1.11799993063231       -0.01473984572003
C            5.41891885930313        0.14077012512157       -0.01112230041339
C            6.84560915578806        0.12892964055413       -0.00116793959926
C            7.55460203092033       -1.02210010635484        0.00465273737357
C            6.92336512260801       -2.30177700075008        0.00100732368781
C            7.64710372022893       -3.50604079740760        0.00726173377042
C            9.13554530819924       -3.52845460739725        0.02008491430479
N            6.96610317732002       -4.70450485752569        0.00137711246778
C            7.69845887001206       -5.98227479696604        0.00695192534539
C            5.57677929370771       -4.76074542917340       -0.00949694207893
C            4.82479885106353       -6.04326087872535       -0.01542230234127
C            4.86989186801995       -3.59967262608758       -0.01460654483856
C            5.49702766081684       -2.33597035041711       -0.00954392767155
C            4.66963226595185        1.32924426027458       -0.01742358816247
C            5.31668274483925        2.66965034793491       -0.01426566701407
N            3.29372643533665        1.25846545462001       -0.02701887548760
C            2.47347253612746        2.48203656386011       -0.03793882547825
H            0.77138909470011       -1.03643590454588       -0.03677196851474
H            0.72885004417071        0.47892560598479       -0.92357782714128
H            0.72061487239919        0.47998696330420        0.84793923707429
H            2.79568920436039       -2.03802186930786       -0.02405570371362
H            7.38925192761938        1.05503613062026        0.00172694095022
H            8.62619237119363       -0.95287285348173        0.01165432583566
H            9.58158848636792       -2.53773471207646        0.02694069674623
H            9.51972472195563       -4.03544112648031       -0.86584151907421
H            9.50434637211765       -4.04024360315870        0.90977898872058
H            8.77471833947712       -5.84416873049645        0.01431071506952
H            7.44907106115178       -6.55378620586537       -0.88483146583255
H            7.43653981747167       -6.55321523890035        0.89550595340620
H            5.47592221572192       -6.91482208741870       -0.01063235645066
H            4.19469284218092       -6.11214455625790       -0.90311974367281
H            4.18140674233379       -6.11243529704743        0.86267525751091
H            3.79915635937188       -3.66728626508977       -0.02334775045245
H            6.40221827957548        2.62405069968939       -0.00258893147450
H            5.02024853803562        3.23681699015448        0.86887825272483
H            5.03878670695906        3.23214802556035       -0.90637049771844
H            3.07486901224777        3.38535523910934       -0.03734743584669
H            1.83847170765503        2.50845496021676        0.84484338896333
H            1.85161519374734        2.50121477607916       -0.93020851221595
