46
 energy: -8.025682877316 gnorm: 0.000633929337 xtb: 6.5.0 (97a52f5)
C            1.41406298990727       -0.59750900889052        0.39476036906971
C            2.57626659202401        0.10145831021073       -0.22890193683426
O            3.00834030886103       -0.27617324317281       -1.29406170683499
C            3.19806241195208        1.25025153515777        0.45173029077068
C            2.73734263420063        1.73438876225103        1.70384966982755
C            3.34890801013075        2.77705460303438        2.30999508773418
N            4.42710288787434        3.38319379799141        1.69931548276335
C            5.25172682268155        4.42453344062149        2.10828028640010
C            6.21225394254627        4.65460396578744        1.14223490431338
C            6.00889779416592        3.75938596985089        0.07575067859348
C            6.80381137895745        3.73233909415704       -1.11933323439495
C            6.45251653783163        3.13732431020180       -2.27803312573810
C            7.24872877656194        3.10123423130636       -3.48004152516051
C            8.54150139295347        3.63212740448448       -3.54962561264541
C            9.25186048321215        3.57142834093672       -4.71440496657887
N            8.71479815925597        2.99225743245445       -5.82066236188104
C            9.48014378529037        2.93295450550154       -7.07009018637052
C            7.46206422306946        2.46761066150154       -5.78496854505221
C            6.72592517722325        2.51190469192004       -4.63608456452458
C            4.89033363751312        2.95318893343103        0.45916861215068
C            4.26925649459666        1.85805765945210       -0.15334989286130
C            7.09696814796601        5.78611108135757        1.58580347422880
N            6.51091637961228        6.13039508626941        2.90589532914659
C            6.93861575236757        7.22374349344922        3.76059578116128
C            5.40922603647614        5.34599176958714        3.23702484647058
O            4.71758695442990        5.41022407811418        4.23650667306174
H            1.08521715987644       -1.41027586574490       -0.25190321890862
H            0.57285016349268        0.08148034223879        0.53177932930830
H            1.68387404067315       -1.02614409766710        1.35960566509636
H            1.89799039807454        1.25848153545555        2.17959460019527
H            3.02679603780180        3.15589339477837        3.26455104097788
H            7.73084251992884        4.27375141650729       -1.07782989269867
H            5.48018437079843        2.68851624790979       -2.34252878715483
H            8.98564021243844        4.08613734633780       -2.68245539976505
H           10.24561862440483        3.98027371154390       -4.77467027189988
H           10.49466919140447        3.29414246771809       -6.91770422983883
H            8.99880200587410        3.55023422979093       -7.82564811020556
H            9.52796346592102        1.90586403728171       -7.42564802900627
H            7.06564872613639        2.02029526982829       -6.68021094680465
H            5.73338637201210        2.09564634828404       -4.61433566730206
H            4.63670679678143        1.45022965907604       -1.07533467382747
H            7.03917386917511        6.64050984858927        0.90667833822301
H            8.13712509918813        5.47044305832410        1.69999825003248
H            7.92545617841228        7.57153155404508        3.46319512946797
H            6.97362243507636        6.88164515209399        4.79281085343425
H            6.22843462086654        8.04409343663782        3.68344219385904
