35
 energy: -7.635504295558 gnorm: 0.000962177212 xtb: 6.5.0 (97a52f5)
C            0.86085167264727       -0.29427318034900        0.40348027330844
C            2.32127972659613       -0.09346564254725        0.21305070894451
C            2.86503792421198        1.16713627648930        0.26084712090705
C            4.25594622090963        1.36370254467359        0.08410777706220
C            5.07154844810818        2.54831114400787        0.10480136030552
C            4.77393480221086        3.90269246574081        0.29392934542692
C            5.80051545818515        4.81243827674072        0.25970934278971
C            7.12310030207996        4.40375812872842        0.03979186264602
C            7.43557298683353        3.08144426409665       -0.14740970473198
C            6.40420767003846        2.13751464537392       -0.11620746502077
N            6.42112074250135        0.75464505982018       -0.27117753060228
C            5.12110937625108        0.28376156350877       -0.14815772140729
C            4.57697591866702       -1.02305993586356       -0.19943867320613
N            5.18412752527590       -2.25263266683033       -0.40177693649914
C            4.20627239971457       -3.23805559785944       -0.35157934836413
C            4.30320592274918       -4.62643003372274       -0.48734165669023
C            3.16044597507139       -5.37787467037137       -0.39534458578789
C            1.91711051002752       -4.77470493847047       -0.16934977138996
C            1.80213126405854       -3.41442771099763       -0.03166668707740
C            2.95535502327370       -2.62338598052595       -0.12072384285797
C            3.19281188206843       -1.20346262351404       -0.02154611241696
H            0.34850559030404        0.65275061965802        0.57801116044920
H            0.66570290437439       -0.93622148418353        1.26315640051652
H            0.41337776515387       -0.75283210409785       -0.47936891111376
H            2.23581633543965        2.01978470634641        0.43773168709972
H            3.75681807876867        4.20981996614464        0.46224793057772
H            5.58827303133084        5.85911337704404        0.40401967248074
H            7.90715895792206        5.14271364027732        0.01889396442215
H            8.44792175047704        2.76051265276794       -0.31671449495176
H            7.24809131539792        0.18252377978461       -0.43014006620990
H            6.18200969404734       -2.40905109535944       -0.52937421951583
H            5.26275461972620       -5.07995497994831       -0.66085906601755
H            3.21797117148766       -6.44910214096879       -0.49827645459413
H            1.03617957570646       -5.39189660409786       -0.10255680724473
H            0.84460745838395       -2.95859172149590        0.14171144876342
