41
 energy: -8.495315665255 gnorm: 0.000782621076 xtb: 6.5.0 (97a52f5)
C            0.78654537943311       -0.17051950930352        0.38958002688499
C            2.25149467492090        0.07290084960904        0.31185943290002
C            2.75080633757753        1.34177416017954        0.45128830718550
C            4.14119100251469        1.58221701072914        0.36850675045185
C            4.87380815152669        2.81665923010209        0.40273873851216
C            4.47573058389308        4.14537098784431        0.59052364048244
C            5.42715407419333        5.13209572778349        0.52978413626265
C            6.77019520953806        4.82379848864928        0.27762607657975
C            7.17608480365111        3.52766451698374        0.08504454071220
C            6.22240095077316        2.50622389283230        0.15139064648437
N            6.33624402851210        1.11955460172059       -0.02542822988160
C            7.49018400497730        0.49813806978715       -0.67024595266563
C            5.06319669908983        0.54716861020632        0.14390616250662
C            4.56707852083453       -0.78506644295009        0.05895312819304
C            3.17510709467914       -0.99984485878553        0.11309660103362
C            2.96265280952724       -2.42184027612363        0.00960752903257
C            1.81132299157793       -3.22140420688422       -0.00478640468120
C            1.94687014130332       -4.58474422169366       -0.07830188938358
C            3.21115474898242       -5.18217353159304       -0.13525343920143
C            4.35091216494291       -4.42082972130215       -0.12122194662481
C            4.23128033110453       -3.02856678638116       -0.05270696857648
N            5.21088556935164       -2.03035799619182       -0.00283259684099
C            6.60622973036422       -2.30388690455605        0.33098173088626
H            0.23865003567480        0.75917012695279        0.54922455261355
H            0.54617793437478       -0.83849560713266        1.21750444362166
H            0.41570806334627       -0.61461177119162       -0.53505803019209
H            2.08455646181905        2.17060002594271        0.60550554989320
H            3.44128991875294        4.37447572418814        0.77665648832959
H            5.13821133041073        6.16020432532679        0.67456127223493
H            7.49556254426798        5.61969689845070        0.23359680736744
H            8.20694548828757        3.28709752381008       -0.10478584345007
H            7.16629507177106       -0.32056143550836       -1.30839951553369
H            8.19108956257992        0.12984833592643        0.07561574747061
H            8.00474344002295        1.22436355240617       -1.29634017676957
H            0.83677020304399       -2.77128491301187        0.03994214967671
H            1.06706509371571       -5.20714735842378       -0.09034731777395
H            3.28797351431979       -6.25575955421460       -0.19119254676284
H            5.32523731201325       -4.87326599016010       -0.17166148906696
H            6.68311136605983       -3.23448761473692        0.88976837304345
H            7.00301129118408       -1.50774524529824        0.95622784864402
H            7.20273136508685       -2.39635871398725       -0.57387833359859
