31
 energy: -6.465112352495 gnorm: 0.000668595552 xtb: 6.5.0 (97a52f5)
C            0.98951836174071        0.17869391834558        0.06809339167031
C            2.46529790573891        0.06632262609487        0.07283998348767
C            3.17094387591629       -1.11612744037196        0.07485017377963
C            4.53532882956937       -0.77934695896197        0.07894889643596
C            5.71470046268369       -1.57821130365911        0.08110139227163
C            6.95436650132316       -0.99888473161128        0.08429071991024
C            8.18226338231662       -1.83686073296176        0.08671157637972
C            7.03732334473072        0.43275792318397        0.08524126804483
C            8.15697635327374        1.34240960700983        0.08864421990316
C            9.54603264849212        1.15918340071155        0.09160382943064
C           10.36183259481676        2.26198169402040        0.09402518830111
C            9.82924572778542        3.55711727196579        0.09353277524250
C            8.47451345214325        3.76370169868693        0.09054358782638
C            7.62681686030906        2.65182917765479        0.08801162782194
N            6.24019932138549        2.56818543205044        0.08431702300478
C            5.88314936499882        1.23186864598788        0.08262809393903
C            4.59502316390426        0.62502796373887        0.07928882738511
O            3.32040416555291        1.14580745846366        0.07564795586256
H            0.51836938275516       -0.80447755196714        0.06865537122777
H            0.64971953438550        0.71750674600498       -0.81615788205354
H            0.64431271749029        0.72111041210625        0.94802887402538
H            2.75882449185617       -2.10940257927082        0.07311942638470
H            5.61819113783879       -2.64827938637730        0.08025196710572
H            7.93776365852004       -2.89972932099965        0.08571547312886
H            8.78553777083937       -1.63916004742360        0.97331604842523
H            8.78954266157161       -1.63840721937027       -0.79698577069172
H            9.96225980764207        0.16846514918014        0.09191055400794
H           11.43148363125272        2.13111586645061        0.09632492182639
H           10.49645454871477        4.40341265580453        0.09550432934266
H            8.05676495597547        4.75457663129378        0.09002820547819
H            5.58900938447666        3.35042299421993        0.08290795109526
