29
 energy: -5.627732593235 gnorm: 0.000951410801 xtb: 6.5.0 (97a52f5)
C            0.90819007859541       -0.07009346496572        0.23361104129053
C            2.20407418846927        0.66445356728060        0.32400709368654
O            2.50453912908218        1.46273170149109       -0.53545089585774
C            3.11422626028953        0.41839583306356        1.45816949978324
N            4.09530432871045        1.27577367797877        1.78805658436893
C            4.70332104412124        0.74995163632748        2.83795372586519
C            5.83632278111036        1.37442783897569        3.52041799986159
C            6.35199648301757        2.58882037264031        3.08605896163538
C            7.41882937019078        3.16842504644465        3.73540706646296
C            7.99647117730856        2.55583687817934        4.83904764113821
C            9.16414776779496        3.17180892834957        5.52806507651290
C            7.48627177038090        1.33726338486452        5.26484349844112
C            6.41929536400252        0.75527216432384        4.61791112547850
O            4.15546394865235       -0.44933127441792        3.22087186035435
C            3.14791652990246       -0.67458552372136        2.34768420587200
C            2.28192415975182       -1.87207354905903        2.36999411821391
H            0.25160968722693        0.42559736243486       -0.48036515619186
H            0.39697045254506       -0.08934989967672        1.19555951825808
H            1.05753860443901       -1.09274305900848       -0.11039432568246
H            5.90440788333368        3.06856951801626        2.23331492108715
H            7.81466333664249        4.10688236004052        3.38728607656664
H            9.14907217832629        4.25792033653705        5.43327617183060
H           10.09972783514189        2.80852514486030        5.10224051390552
H            9.16236691916361        2.93329940676366        6.59197684017552
H            7.93489429571353        0.84700395257436        6.11165061504850
H            6.02342467443366       -0.18828526220057        4.95233804962379
H            2.66840124486880       -2.59644808948530        3.08616458228950
H            2.25205482789355       -2.35543226506123        1.39429353341331
H            1.26637367889198       -1.61900672355245        2.67176005656823
