31
 energy: -6.591418800115 gnorm: 0.000788272639 xtb: 6.5.0 (97a52f5)
C            0.75114631965583       -0.16438429293772        0.05875948587724
C            2.21203865063626       -0.10353894066112        0.06348304529902
C            3.13140300949361       -1.11509589467805        0.06539050427044
C            4.51094935722128       -0.68563750222414        0.06971532728795
C            5.67699682108650       -1.52216963923589        0.07277839893761
C            6.94035815208645       -0.99319020732829        0.07697663658848
C            8.13322055082400       -1.88012112351523        0.08021687386408
C            7.08546791803961        0.43311784606214        0.07826913879539
C            8.23640753184798        1.30278349008020        0.08236091239212
C            9.61791965157082        1.07017758844297        0.08599006931928
C           10.47200193991923        2.14365189868686        0.08910186847694
C            9.98559404096211        3.45689468751573        0.08865527130946
C            8.63885906391953        3.71143019927627        0.08504528047501
C            7.75232249917008        2.63031490815580        0.08179555260706
N            6.36320953567059        2.59480780379819        0.07750128617916
C            5.96151186750928        1.27176436065837        0.07530371754331
C            4.67338088166770        0.70021505666805        0.07104365665624
S            3.11651871843999        1.29377284969392        0.06678969823715
H            0.39702052888544       -1.19632252709907        0.05867672667709
H            0.35123757209944        0.33382678143933       -0.82504718023585
H            0.34556029871817        0.33560894599134        0.93898463165180
H            2.85080271235403       -2.15968586759883        0.06399189194950
H            5.54388132545809       -2.58830498534023        0.07181434758429
H            7.84599352110263       -2.93222441907076        0.07920574830906
H            8.74366132097876       -1.70695400236745        0.96707695186143
H            8.74872507988119       -1.70660217962629       -0.80306363490750
H            9.99817110324556        0.06506137325819        0.08627667593198
H           11.53643042864924        1.97532555476466        0.09189478692022
H           10.68245771474972        4.27895454290494        0.09116243347043
H            8.25615656293234        4.71638397104711        0.08458739588944
H            5.73239532122448        3.39364972323907        0.07617250078224
