32
 energy: -6.352948217953 gnorm: 0.000925359309 xtb: 6.5.0 (97a52f5)
C            0.99391710642675       -0.04322433416447       -0.54367748558281
C            2.45741474810440       -0.00159576167900       -0.27923788315393
C            3.05438591751208        1.20464164466388       -0.09237775611550
C            4.44353635042665        1.28683714311744        0.16462537235946
C            5.12074554337559        2.48527107650488        0.36275922287033
C            6.49366887976166        2.49836757197519        0.61524290454416
C            7.21299234124151        3.70549781042251        0.81422598587858
C            8.55633264050041        3.71349180696778        1.05799220486404
C            9.26541712191727        5.00888694423485        1.26122818600219
C            9.26639157371259        2.47562445959806        1.13948404361179
C           10.73344659537656        2.45775545346583        1.40533268257912
C            8.59982135791607        1.30148124675623        0.94042637904477
C            7.20547176778954        1.26584557972805        0.67380165487486
C            6.52101333356316        0.06798151546913        0.47184996938258
C            5.15069675763972        0.06054216998337        0.21647326411869
C            4.41189922209588       -1.12832847763716        0.00248317325307
N            3.13556799901575       -1.18946935995101       -0.23442052538142
H            0.74153782050863        0.53139288241689       -1.43561633223115
H            0.43450435279446        0.36858607121751        0.29711719910505
H            0.66155503176577       -1.06958301074830       -0.69947061920834
H            2.47075300922998        2.10631470410245       -0.13894606908357
H            4.57989991923647        3.41310656679156        0.32015651568810
H            6.67855277751782        4.63726115477473        0.76654862146446
H            8.65619620007110        5.85090813533393        0.92975201020485
H           10.19834336934387        5.03995965888500        0.69702406617102
H            9.49901877839465        5.16278508020214        2.31546637910441
H           10.99990276910996        3.16381686425715        2.19305029462435
H           11.29480330433861        2.72107918137408        0.50766134808795
H           11.06535272854673        1.46942763427806        1.72747673537295
H            9.13957980589763        0.37270307906572        0.98540120434386
H            7.05722036549965       -0.86258364016007        0.51398815882914
H            4.94420051136895       -2.06437085124661        0.03585909437629
