26
 energy: -5.454825247485 gnorm: 0.000341332765 xtb: 6.5.0 (97a52f5)
C            1.06814835582110        0.01166507619563       -0.34465206570829
C            2.54339667849953        0.05019412848789       -0.16037209772018
C            3.15479074282497        1.25447164882119       -0.01271561051852
C            4.55504266274010        1.33106606186224        0.17593451880472
C            5.24533711168160        2.52744248863126        0.33651149503695
C            6.62861663852454        2.53694755648797        0.52311444062979
C            7.35772304937954        3.74521150571245        0.69115589593835
C            8.70343183421594        3.72448754486042        0.87064845587466
C            9.40502370567931        2.50376136437803        0.89350618590231
C            8.74867102224553        1.32599709690878        0.73774194454400
C            7.33970941468067        1.29878528904048        0.54760330281513
C            6.63945763002821        0.10410667358414        0.38634079925119
C            5.25812653248260        0.10192033859664        0.20145084836997
C            4.50340473620954       -1.08470609148972        0.03842624000357
N            3.21672999092949       -1.14101013443075       -0.13260304916738
H            0.75798213790637        0.66651170062743       -1.15959685911152
H            0.55540182506127        0.33065898406680        0.56334853177892
H            0.73728594638511       -0.99947722070305       -0.58094431064824
H            2.57434731992546        2.15903626398372       -0.03754708507362
H            4.70590865024560        3.45685449909743        0.31811500530185
H            6.82450011803527        4.67995936301663        0.67456479224029
H            9.24371981867663        4.64833372011409        0.99657377106963
H           10.47321138116476        2.50957972157791        1.03630573643983
H            9.28796671138980        0.39471127489511        0.75616336214891
H            7.17228372128679       -0.82907280532429        0.40582047519793
H            5.03106226398076       -2.02390604899874        0.05873527659948
