31
 energy: -6.621997901203 gnorm: 0.000359913094 xtb: 6.5.0 (97a52f5)
C            0.87633057842512        0.08664173134074        0.06057686509695
C            2.36325669147436        0.07569334565933        0.05723480680239
C            3.05663099232116       -1.10221930270747        0.05538856380979
C            4.48403437229921       -1.15911669488352        0.05168176588360
C            5.17422154639914       -2.38639647750446        0.04902297332394
C            6.54090364876724       -2.41920017208882        0.04445319778911
C            7.27699329856476       -1.23360296656802        0.04244755963361
C            6.63807909672099       -0.02494482894787        0.04511868493826
C            5.23593969688300        0.03807040562589        0.04986820367683
C            4.51489603620364        1.27239229717749        0.05237446490458
N            4.98491179590662        2.57360428363495        0.05204331699995
C            3.89945983072613        3.44086694668764        0.05477119392292
C            3.84528579123047        4.83853111111316        0.05517859657946
C            2.61825204519968        5.44906559025824        0.05761901904013
C            1.43740082572768        4.69545307959320        0.05969882909467
C            1.47080158752959        3.32409885738840        0.05943348271206
C            2.71377979277087        2.67601407538784        0.05698483003831
C            3.11086352228755        1.28972089112422        0.05575898742421
H            0.47113666000284       -0.92603490091190        0.06157365686386
H            0.48937844467378        0.59465969646882       -0.82356684955051
H            0.49330353100110        0.59485577554495        0.94631355092708
H            2.51192600314839       -2.02911791067939        0.05649952777291
H            4.60891296584971       -3.30244765153016        0.05047661844723
H            7.05595339864998       -3.36597115405700        0.04230659867725
H            8.35403476629163       -1.27349869619453        0.03866446330809
H            7.20341777998570        0.89006271465858        0.04344572226982
H            5.96222977749150        2.85979175012197        0.04983126477433
H            4.75756378880461        5.40803003130598        0.05358535301646
H            2.55909118247905        6.52516787208165        0.05791491708994
H            0.48722769445127        5.20402447603272        0.06146559440741
H            0.56133285773323        2.75162582486734        0.06095424032538
