42
 energy: -9.348897847417 gnorm: 0.000747315091 xtb: 6.5.0 (97a52f5)
C            0.98475429102913       -0.00412415246240       -0.06958965922459
C            2.47029340064246        0.05276907598724       -0.03424186893238
C            3.21146510768864       -1.09463038369174       -0.00123182231056
C            4.63673555209812       -1.08867103103449        0.03970650973869
C            5.37488689596298       -2.28707571972375        0.08890701837384
C            6.73969014552491       -2.26601999080217        0.14076842097053
C            7.42659433231058       -1.05180368024758        0.14689015631243
C            6.73993214681728        0.12729213649318        0.09760278702488
C            5.33650839514812        0.14045505525852        0.03882512028573
C            4.56464056449790        1.34242667392606       -0.00718220373456
C            3.16578164158826        1.29605379430017       -0.03241441619757
C            2.69432104650158        2.65957393425605       -0.05298637157719
C            1.41877085326771        3.23596766247988       -0.08346823482579
C            1.30745910338160        4.60417246517858       -0.10435653350403
C            2.44221377315923        5.42114359996755       -0.09742027558698
C            3.70043055155124        4.87640162449074       -0.06917692404062
C            3.82857092956105        3.48763483045990       -0.04460826103880
N            4.97963532439134        2.68239010938956       -0.02056973882954
C            6.32414927553723        3.20177690770695       -0.07744275482696
C            6.92717146233667        3.72664552508790        1.05927681869147
C            8.21049560549794        4.21742005840308        1.00395410691981
C            8.92653390330994        4.20000227951648       -0.18898518810080
C           10.23690662730352        4.70208743366155       -0.24431281661278
N           11.31949201038453        5.11917533771587       -0.29262192440989
C            8.31810728668976        3.67854587086802       -1.32643045849298
C            7.03438020053977        3.18887592198917       -1.27228956819054
H            0.62709424102085       -1.03413439402880       -0.09032784852713
H            0.59807292534617        0.49443168125596       -0.95884068982539
H            0.55689263133222        0.47467709963347        0.81168239442752
H            2.70653424604511       -2.04366051876597       -0.00118540205815
H            4.84645678144110       -3.22472934195478        0.08751059303641
H            7.29107360033362       -3.19112251101602        0.17968820787616
H            8.50332684841769       -1.04677601917127        0.19122040691561
H            7.27093915842483        1.06033182492497        0.10711569993112
H            0.54199701015692        2.61513996673935       -0.08908818994694
H            0.33021195967464        5.05766303083689       -0.12669206657224
H            2.32551978552979        6.49220935302821       -0.11481663173198
H            4.58183118458113        5.49238734178293       -0.06492665871420
H            6.37301295492335        3.73898015408698        1.98147638332703
H            8.67636055097532        4.62177613538326        1.88640675407778
H            8.86720244202352        3.66433741406331       -2.25240885285667
H            6.56266325305141        2.78626344402703       -2.15164601723993
