63
 energy: -13.594601494960 gnorm: 0.000166930838 xtb: 6.5.0 (97a52f5)
C            0.93585145122357       -0.14730605117438       -0.06115889806671
C            2.40798534404864       -0.02670323789150        0.11267260301793
C            3.16315481974005       -1.11656484525611        0.44247703903887
C            4.57509250785254       -1.04521817873058        0.63012737201399
C            5.32318814790816       -2.18337149035248        0.98918676319516
C            6.67220580913732       -2.09888207421440        1.19202877374998
C            7.32991429901008       -0.87692089766277        1.05192061189624
C            6.63271148072023        0.24417457929933        0.69969542495030
C            5.24800361312616        0.18962645037182        0.46714490523883
C            4.46592931568700        1.32703701009150        0.09034899533912
C            3.07658192410976        1.21946838533236       -0.06221413877869
C            2.58081688988088        2.52880731288752       -0.40567296728360
C            1.30047888887147        3.03533701106412       -0.66580483928457
C            1.16124638076079        4.36478553403658       -0.97834837559553
C            2.27310729992819        5.21144121726748       -1.04253877774614
C            3.53471166232026        4.73543773533975       -0.79167496980108
C            3.69177141711188        3.38694659058387       -0.46640817948208
N            4.85216973623906        2.65100192697134       -0.17283902786037
C            6.18074836508061        3.20937350551112       -0.23296754626069
C            6.56176587692299        4.21800922721999        0.64419537080763
C            7.82192044855105        4.76168891625801        0.57879175576234
C            8.74869319266485        4.30859177478743       -0.35828226081425
N           10.06915429492913        4.86630717760993       -0.41542865807325
C           10.68298718982248        5.40144228720186        0.76807392950254
C           10.52753656941476        4.77691434802752        2.00383703557104
C           11.11180296221845        5.30177173364059        3.13495471899136
C           11.86510906693290        6.45714822420139        3.05382643205039
C           12.03396908035940        7.08524173692673        1.83500069664441
C           11.45017973144555        6.56276328520594        0.70279069587100
C           10.79107105204138        4.89868670374477       -1.65703128170678
C           10.14573886902342        5.19303879498255       -2.85624404121544
C           10.84432125174576        5.21681672688255       -4.04268069432634
C           12.20008629611547        4.95086273338481       -4.05444035107275
C           12.85585701338790        4.66249766143400       -2.87315919844023
C           12.15943524862088        4.63761225040468       -1.68571308387441
C            8.35913609287802        3.30084914094439       -1.23862506187397
C            7.09312883313519        2.76929893979994       -1.18557207818154
H            0.60053292323709       -1.17407429978036        0.09095100530587
H            0.63721365167133        0.14931638396639       -1.06730842136001
H            0.40663979535824        0.48027470075705        0.65687592391173
H            2.67930630833856       -2.06742714497606        0.57579761627929
H            4.81528588611484       -3.12538814868708        1.10528353030851
H            7.23190438106195       -2.97835157664888        1.46602838280123
H            8.39260823608877       -0.81902432369410        1.22249597176925
H            7.14247901662823        1.18435877489121        0.60704439211923
H            0.44179342306058        2.39109223090967       -0.61862851835401
H            0.18055084058067        4.76438312912638       -1.17852429547188
H            2.13514721895782        6.25076141072641       -1.29220423787614
H            4.39701804244225        5.37609344077568       -0.84025904920292
H            5.85219890592275        4.56622526863096        1.37436778537832
H            8.10493292487149        5.55296977849970        1.25040482533236
H            9.94875907148593        3.87154205960636        2.06003583921930
H           10.98166403768797        4.81015166087415        4.08529582029637
H           12.32080085647380        6.86783883765037        3.94005321683844
H           12.62187287833560        7.98637983438992        1.77040252983573
H           11.57161614610361        7.05181764769869       -0.24796569360854
H            9.09201118556896        5.41038860669689       -2.84019749790026
H           10.33268483600205        5.44394061065779       -4.96377147314428
H           12.74565790044944        4.96885446184160       -4.98381954999498
H           13.91364980356300        4.45545212093723       -2.88100316817901
H           12.66313296583668        4.40653012583882       -0.76335437643050
H            9.06894325306954        2.93615021205511       -1.96001144089321
H            6.79358308809046        1.99742205113179       -1.87296781086393
