39
 energy: -8.545269821285 gnorm: 0.000561959194 xtb: 6.5.0 (97a52f5)
C            0.88484339110756       -0.08394130522772       -0.03683839408158
C            2.37112585243483       -0.08836637927995        0.00127720510126
C            3.06442314103273       -1.26502548549797        0.02446508186915
C            4.48829855939061       -1.31701595555202        0.06659951640335
C            5.17542563428554       -2.54526103404673        0.11815487461077
C            6.54009687859389       -2.58186546416916        0.16562750161065
C            7.27729142648801       -1.39775410175415        0.15619610459315
C            6.63979600005832       -0.19204624414789        0.10158090609795
C            5.23828464373682       -0.11765808099448        0.06331376067333
C            4.51729627942100        1.11683877794045        0.03914144798226
C            3.11635723082838        1.12539037711447        0.02265427469968
C            2.69599319871643        2.50476884324437        0.05344554810099
C            1.44405120134884        3.13199133194149        0.04947856042382
C            1.38596288820884        4.50311171237391        0.08871807285983
C            2.55169610887279        5.27440807892629        0.13427971230812
C            3.78645662156629        4.67909627755923        0.14082425998284
C            3.86065316073738        3.28735254640105        0.10013323914228
N            4.97780210101500        2.44029469294653        0.07898741772706
C            6.33466596870003        2.93958790068123        0.06581048219174
N            6.68059371867265        3.73405926678470        1.07881081975792
C            7.91215362851565        4.18665107727231        1.04046955615664
C            8.78563635615158        3.87433523014907        0.03578580615563
C            8.31821253456921        3.05778235527677       -0.95643637088015
N            7.09518129107429        2.58095455374750       -0.96805265355790
H            0.48552658716339       -1.09799911650826       -0.07636065334932
H            0.52072282199776        0.44581909245399       -0.91756656133249
H            0.47473566133881        0.39621528030967        0.85205619377802
H            2.52122885747506       -2.19268455502743        0.01639610696202
H            4.60814567393789       -3.46003053914016        0.12328226156952
H            7.05231076030065       -3.52916791051530        0.20686997638177
H            8.35389177643215       -1.43765113424065        0.18411417180333
H            7.21123321983562        0.71536319105688        0.06365450320250
H            0.54363814326605        2.54684746569925        0.01520056706274
H            0.42716115836901        4.99491505097205        0.08529589128153
H            2.47716655890008        6.34892289413344        0.16661344293598
H            4.69264078214409        5.25542941343192        0.18419790580260
H            8.22721556239139        4.83142160669904        1.84763006103776
H            9.79307639340767        4.25607837911508        0.02480500564422
H            8.96484822751335        2.78122190987061       -1.77613560270890
