34
 energy: -6.406824399704 gnorm: 0.000649987777 xtb: 6.5.0 (97a52f5)
C            0.91505220282516        0.20217919432009        0.25341000008539
C            2.11852174227719        0.35099983973673       -0.61612686958755
O            2.29554849989424       -0.41825769340455       -1.53504564731192
C            3.08851879416813        1.43065098422882       -0.35825695545898
N            4.01912936491836        1.78415379750712       -1.26223427480051
C            4.71007773774767        2.76844591064586       -0.71241553154357
C            5.82045763853152        3.45034845048563       -1.37431688768763
C            6.50001411174974        4.47775963925976       -0.72891629172422
C            7.54525707106228        5.12186345218201       -1.34374831245705
C            7.95407223920816        4.76405635882272       -2.63240452657365
N            9.02926441860770        5.42305286350357       -3.26428277275187
C            9.86666993272297        6.38284007449588       -2.54536814854736
C            9.37790384291027        5.15703585581353       -4.65937660652456
C            7.26388334420630        3.73108407626041       -3.27426638667010
C            6.21928202480258        3.08883051597225       -2.65716203384454
O            4.26936154176075        3.08296754752222        0.54929933356381
C            3.24138110455798        2.23510172879032        0.78869512052130
C            2.46982261297949        2.20285652849303        2.04881650263877
H            0.20235839318932       -0.47537298301695       -0.21486933401213
H            0.41341797081647        1.15744342434834        0.40174310033387
H            1.17889657067936       -0.21591499704048        1.22373121586341
H            6.18931865047832        4.75901987550276        0.26272968208258
H            8.05276141232999        5.91894364919598       -0.83085957515177
H            9.29936338050594        7.28711531514110       -2.33473321395448
H           10.74123479050231        6.65338701043599       -3.13299317349739
H           10.21130504107452        5.94854541984494       -1.60911841514301
H            8.48854918422803        5.21429768814998       -5.28365563407824
H            9.81840260537002        4.16634526013436       -4.75172426048257
H           10.09227485427478        5.89007114482656       -5.02781161644079
H            7.56321103479630        3.42858668043866       -4.26158659263145
H            5.69459333524250        2.29402649432277       -3.15769908396399
H            2.90827778044011        2.89196600441079        2.77003995008300
H            2.48088947694248        1.20766740608152        2.49195142299777
H            1.43649729420014        2.50755348258806        1.88796581666942
