24
 energy: -4.648625523182 gnorm: 0.000298928910 xtb: 6.5.0 (97a52f5)
C            0.98826351505102        0.00085184254125        0.01288165533501
C            2.47738470070511       -0.04567311323958       -0.05799736066221
C            3.19718219616106        1.11950959139396       -0.08554329838949
C            4.60799298053439        1.12085918582048       -0.15305091007059
C            5.36215265070821        2.31710759988410       -0.18246872539874
C            6.72238565428018        2.27792764759655       -0.24804162191844
C            7.39623802762643        1.04954487632887       -0.28736970275341
C            6.69959008619323       -0.12094186087346       -0.26096291072044
C            5.28677314440302       -0.11654019197064       -0.19330350525060
C            4.52882069880613       -1.30802200321042       -0.16476702901550
C            3.16066765409956       -1.29128979284229       -0.09800003887897
C            2.40092851009210       -2.57463388287809       -0.07240625571968
H            0.62227600073514        1.02821178499219        0.03854302059895
H            0.62375646396450       -0.50031081491906        0.91053629867138
H            0.54076050670318       -0.48722656807784       -0.85394658189925
H            2.68053433852374        2.06211525081804       -0.05555952665634
H            4.84408252352339        3.26026056262657       -0.15213979411438
H            7.28719562497350        3.19575027648773       -0.26990856534946
H            8.47279536547670        1.03454599062695       -0.33935785449847
H            7.21678564099476       -1.06457658940500       -0.29167706273444
H            5.04606273313333       -2.25022326370322       -0.19655599467476
H            3.07162261122809       -3.43503276891458       -0.07085359669273
H            1.75355450813338       -2.66216120027599       -0.94598620181194
H            1.77763386394985       -2.64259255880654        0.82014556260449
