28
 energy: -4.119732766374 gnorm: 0.000900249442 xtb: 6.5.0 (97a52f5)
C            1.43264214976676       -0.28805452413443       -0.29370617879458
C            2.86301832258589       -0.47894885578888       -0.05482756025313
C            3.35563481382536       -1.72077406968864       -0.18392376616449
C            4.58413961578751       -2.22228906560107        0.08107206007663
N            5.16472500139922       -3.35007899843290       -0.35823265063378
C            6.36709420877001       -3.68655005965168        0.06992561810143
N            7.14613613331066       -3.06914620731315        1.13178426770416
C            8.46984407808027       -3.47913438431872        1.00831671138462
O            9.45747818371854       -3.65481777511191        0.12510911637116
N           10.24137804815029       -2.81696665188427       -0.56781228576574
C           10.35247300891518       -1.45714856111475       -0.60734914064685
O            9.51152301114010       -0.47176725598072       -0.32709667165568
C            8.20254732600732       -0.47221183562414       -0.26476562520919
N            7.25090303412427        0.39244709438096        0.05066265087761
C            5.98430517031960        0.16006812732627        0.00671363250686
C            4.93784913597089        0.91598964613427        0.37321328584313
C            3.61009986431235        0.64416722867008        0.27590812798244
C            0.00783608316604        4.43472194135146        0.22062475785277
H            0.82755461753975       -0.85684239584567        0.38476154121986
H            1.15493368113701       -0.52065064085903       -1.30278718895601
H           -3.04085055168151        1.01403901854653        1.29838527272367
H           -0.27779242262650       -5.08846945732861       -0.64184182255234
H            6.82221554636083       -4.55082822529956       -0.39396724203994
H           10.98292984245879       -3.25964004038836       -1.09597255926400
H            7.51492579764703        4.94188078852434        0.23224953865962
H            3.79462595380558        6.97302500076125       -0.38786077004545
H            0.91198065572550        1.97678195443429        3.91528108485225
H           -0.22085029244787        2.51782820968782       -3.98217419363486
