31
 energy: -6.357745592985 gnorm: 0.000669144230 xtb: 6.5.0 (97a52f5)
C            0.91568658635651       -0.04210127450290       -0.00578882308433
C            2.40492744122131        0.01565461878093       -0.00901543062502
C            3.13471989223407       -1.14472330641896       -0.01438303385515
C            4.54299632836202       -1.15121873353761       -0.01804017754685
N            5.19459322047016       -2.32676708854423       -0.02199494558228
C            6.50680850024277       -2.22122415606355       -0.02493259090221
N            7.26299534939542       -3.38668974244309       -0.02853509464108
C            8.64433875009100       -3.43141668396847       -0.03309582689225
O            9.25045917459475       -4.48838892928464       -0.03635146671311
N            9.31803891351817       -2.20685792387570       -0.03408037868648
C           10.76138960894359       -2.20715226306203       -0.04044300369627
C            8.65374342392902       -0.97643125289776       -0.03003311561113
O            9.28121595080019        0.06745350691426       -0.03089332221971
C            7.18705445623962       -0.97730008358021       -0.02490340184030
N            6.56570584321843        0.17780189685822       -0.02074466721201
C            5.22025781103489        0.09064407450287       -0.01674423899057
C            4.45456755444379        1.27073815257423       -0.01063266734835
C            3.08327394049486        1.25777882743964       -0.00667888455192
C            2.32659724658832        2.54188133076006        0.00088464994422
H            0.55782030607684       -1.07198097693988       -0.00690349732010
H            0.50478074256746        0.44915977454203       -0.88804295318263
H            0.50863285621009        0.44593634591657        0.88002621171645
H            2.62866009638103       -2.09279765361669       -0.01582231823289
H            6.76389965282417       -4.26095726339371       -0.02819079673048
H           11.13234092395153       -3.23117617941241       -0.04211609156655
H           11.12943988411012       -1.69012557094451        0.84381501557067
H           11.12134454793740       -1.69026593643271       -0.92810588040726
H            4.97897080636228        2.20891323299698       -0.00875833155228
H            2.99950797908216        3.39969514522818       -0.00034486049950
H            1.69817254419645        2.61867951341615        0.88842303104498
H            1.68861966812155        2.62366859898894       -0.87935310878558
