31
 energy: -6.034059382854 gnorm: 0.000710675017 xtb: 6.5.0 (97a52f5)
C            0.91864632386850        0.03691467296980       -0.05743659145493
C            2.40436059755023        0.15865892378726       -0.05986205478406
C            3.18416759813701       -0.96935090515377       -0.06825633854543
C            4.59084351030974       -0.91083330268512       -0.07122094577508
N            5.30577490137666       -2.04535786194094       -0.07753503891196
C            6.61879831104938       -1.91209355172886       -0.08058462638874
C            7.33733315582808       -3.05746329088078       -0.07819484747763
O            7.06952138616748       -4.22220528534984       -0.06971106676635
N            9.52153903917863       -8.19440810846849       -0.07308435347812
C            9.54153759475238       -1.27641195637781       -0.11389953132993
O           10.80033138320841       -1.32439775354047       -0.12756366384489
N            8.72454162652764       -0.34539770217236       -0.09338992742645
C            8.95580976302308        0.79656012530265       -0.08344769886378
C            7.27095324567859       -0.62802709842468       -0.07977125226379
N            6.54853839909484        0.48092137623555       -0.06995179637304
C            5.20861043637573        0.35129725380136       -0.06543661320170
C            4.39885970984007        1.49991868180860       -0.05670517021070
C            3.02902433421381        1.42935673558168       -0.05402719674090
C            2.21938823998799        2.68101459233288       -0.04458911367912
H            0.60533955889931       -1.00762321813452       -0.05709793418794
H            0.48750942485151        0.50851649722810       -0.94100405721070
H            0.49030741584567        0.50802955220392        0.82774304784443
H            2.72129815650577       -1.93951150796386       -0.07261414259938
H           11.32901203047227       -7.51761164915712       -0.06986153113457
H           11.25073156882384       -0.43005780234193       -0.08234818876609
H            9.17625852900619        1.91722820318199        1.09595408361847
H            9.18303374558384        1.94763309730738       -1.23744640924960
H            4.88606283902338        2.45826522970196       -0.05237169971752
H            2.85636424612994        3.56609466191796       -0.04530604114002
H            1.58923767982398        2.73116274648673        0.84382799487943
H            1.57846524848810        2.73758864495393       -0.92486729701113
