31
 energy: -5.567757973635 gnorm: 0.000480805825 xtb: 6.5.0 (97a52f5)
C           -0.22226692637574        0.46328073801441        0.10597834567113
C            1.09047202042393       -0.24273474552604        0.12741962094998
C            1.13198794926696       -1.61473556620830        0.15107351368745
C            2.35329386783398       -2.32102566919530        0.16883690671026
N            2.34090903031557       -3.67251652779595        0.19267402013254
C            3.52096967668128       -4.15682628508638        0.20441621341065
C            3.87954462521186       -5.42293522369098        0.24154723674436
O            3.26986932180444       -6.43919660963747        0.27709495394725
N           13.84089909717797       -7.28287919465935        0.38114452111652
C           11.73590741701136        1.60082021552804       -0.06147995860715
O           12.82357850029716        1.02007871201724       -0.07606498579697
N           10.59115291176566        1.14466597277972       -0.21855238593935
C           10.16365988000489        0.08309607711985       -0.42047094036644
N            9.52095270557036        2.10296005932882       -0.14247624581926
C            9.77703289585836        3.24035117476988        0.05562834647438
C            3.50806140181613       -1.57238226347813        0.15909118013725
C            3.49238658969851       -0.21263094513698        0.13229896475807
C            2.30909448884638        0.48239433167066        0.11414651399464
C            2.31689365566666        1.97300724157960        0.08387135485639
H           -1.05218076234147       -0.23878555129835        0.19387011660987
H           -0.35329610701682        1.01299879047796       -0.82674263823287
H           -0.30101718021812        1.16743126371602        0.93486426936729
H            0.21883127288017       -2.18224664723415        0.15624401649856
H           11.97942790339844       -6.98949743960578       -0.00225752226054
H           11.45850624843467        3.11899299371255        0.15648765909221
H            9.37229404891721        4.11635108245275        1.37028815485311
H            9.49138687368715        4.47977616247901       -0.96788537469111
H            4.42974581080528        0.31578385688481        0.12455686957982
H            3.33396679452716        2.36379738111779        0.03584085397735
H            1.84944471560240        2.38333321622672        0.97963724408539
H            1.78016127187471        2.34845340059843       -0.78803083096938
