34
 energy: -7.415379261329 gnorm: 0.000923804777 xtb: 6.5.0 (97a52f5)
C            1.28673440916248       -0.58184639234217        0.92627825992172
C            2.74019668108323       -0.41588305544861        0.66435027273018
C            3.34276701289149        0.80650986868502        0.82881876810743
C            4.72535213893725        0.98743180100805        0.58615425770507
O            5.49592412711872        2.13354862035286        0.69559850012842
C            6.78795638965028        1.77590168406693        0.34454442761321
C            7.95827411708714        2.54327800098770        0.27947626393998
C            9.13035774435745        1.94654772448599       -0.10371429724986
C            9.17819593069604        0.58586971574800       -0.43145188421764
C            8.04985201146918       -0.18903765063426       -0.37881309758567
C            6.84422530313835        0.40410740388537        0.01129488588367
C            5.51858494242259       -0.09515473901902        0.16893433390695
C            4.91820638464698       -1.36530251351035       -0.00967401835989
N            5.44938390000206       -2.57879647256962       -0.41331454033260
C            4.42829123233578       -3.52251055603573       -0.43906515187650
C            4.44733874218902       -4.87594005921988       -0.78534766032908
C            3.27605761633863       -5.58651456112722       -0.72727459239167
C            2.08164248523834       -4.97491613438605       -0.33073650774090
C            2.04364529941306       -3.64608112743032        0.01103184471852
C            3.22663639258376       -2.89907108541866       -0.04016380831362
C            3.54043746691563       -1.51646352791826        0.23622412024326
H            0.83563842091849        0.35079815250447        1.26679649094635
H            1.11464064934439       -1.33094105501377        1.69974259066493
H            0.76171758050132       -0.89078826149697        0.02188607022555
H            2.76614579110662        1.65412476047925        1.14854796022165
H            7.91563585610145        3.58753310523006        0.53169872042971
H           10.03281367166087        2.53326469876920       -0.15496185367086
H           10.11536830539552        0.14530655246985       -0.72924729768577
H            8.07687176009103       -1.23355584921549       -0.62896763399914
H            6.41240252432315       -2.75094153546658       -0.69448701269605
H            5.37042967979791       -5.33613088332771       -1.08949527428752
H            3.27392873894130       -6.63143310036179       -0.99080508917041
H            1.17700213898210       -5.55931856797121       -0.29319875526718
H            1.12242455515822       -3.18287496075901        0.31334070778758
