48
 energy: -9.955997476660 gnorm: 0.000867392201 xtb: 6.5.0 (97a52f5)
C            0.94641425518223        0.28926252975698        0.05244464645067
C            2.19437058454954        0.03666029677022       -0.72598353641014
O            2.52963962992317       -1.09986611477999       -0.97823009168553
C            3.01492615448010        1.17245919933540       -1.18715209129360
N            3.91211146813696        1.05384498102568       -2.18183872596214
C            4.45515083334638        2.25101676259926       -2.32888350266130
C            5.48381353653070        2.56052655528661       -3.31961872853587
C            6.03088072452728        3.83763344210899       -3.38710754695965
C            6.99665516509689        4.13613012518424       -4.31668412581706
C            7.44456367647125        3.16788889578987       -5.21424487287902
N            8.44749325304342        3.48077470726456       -6.19053856585370
C            9.54505799300138        4.33576879794649       -5.83886326128839
C           10.07115632555916        5.23814321156433       -6.75965360920143
C           11.12655063465749        6.05387931132929       -6.41932599337810
C           11.67506756856848        5.98519924293635       -5.15380691972135
C           11.16323105006158        5.09726451107979       -4.22839268399897
C           10.10827285496191        4.28014209141841       -4.56650317013484
C            8.34866264697270        2.94000634440568       -7.51602176935109
C            9.48930534942296        2.56731208484446       -8.22256407755644
C            9.39021480625557        2.05090005021093       -9.49482187917667
C            8.15124539528616        1.89590828214438      -10.08489386943013
C            7.01032701863444        2.25890838740694       -9.39677786412210
C            7.10696680968883        2.77603106540372       -8.12476053200505
C            6.89254098227122        1.88963450968402       -5.14522058699748
C            5.93082444414590        1.59070965580815       -4.21223348583810
O            3.94706140756056        3.17622981128884       -1.44941605315178
C            3.03378101187432        2.49999159300773       -0.71366783393158
C            2.24042153096280        3.09566586048503        0.38167443504103
H            0.31699677967865       -0.59945141210219        0.04285485093984
H            0.36984421757920        1.10686620891297       -0.37825994979300
H            1.17281409462979        0.52378886244809        1.09151334602258
H            5.68253453246091        4.58705518435693       -2.69740332239510
H            7.41096672354645        5.12726631578751       -4.37274342785069
H            9.63289882211195        5.29531959777876       -7.74050766758879
H           11.52467716843257        6.74795562579394       -7.14107303918110
H           12.50150917876584        6.62389238878775       -4.88849303455488
H           11.59109346233557        5.04301116580319       -3.24084302297232
H            9.71187760505731        3.57938248834847       -3.85282652724130
H           10.45130483258501        2.68007612395256       -7.75428511341575
H           10.28057485690277        1.76624355105459      -10.03098878742140
H            8.07470936280050        1.49210953430292      -11.08108977662778
H            6.04329971238368        2.13859267965462       -9.85682427063507
H            6.22208148851287        3.06985718883738       -7.58795091046528
H            7.24212944180845        1.13557080668093       -5.82825622618752
H            5.50806519223259        0.60279636522521       -4.15990816320395
H            2.59771426354560        4.10231835397755        0.59666101156997
H            2.32847144289399        2.51017472302509        1.29637231060127
H            1.18790971056642        3.17075805607033        0.11078801625325
