36
 energy: -6.451319538073 gnorm: 0.000741593455 xtb: 6.5.0 (97a52f5)
C            2.44951792486930       -0.02362509369894        0.05368342888276
C            0.96163763711892       -0.01674678155095        0.03245296718849
C            0.25029253772701       -1.15807214231717       -0.30786363220339
C           -1.12405564492815       -1.14808268840067       -0.34511352759427
C           -1.83895559004966        0.01214976493425       -0.04629120342978
C           -3.32841860120912        0.01987736653566       -0.06529525676063
C           -4.01880254021011       -0.57245406958591        1.02387964415356
C           -3.31299985990386       -1.15116603253492        2.11363324663394
C           -3.96740133212968       -1.71987279766651        3.16197491318256
C           -5.36925427583895       -1.74853902494352        3.19785718301196
C           -6.08563681535039       -1.20065954694882        2.17784462314607
C           -5.41986040199377       -0.61537191761846        1.09962703483229
S           -6.33590212561499        0.03293472015643       -0.09602439956277
C           -5.38941068482605        0.67223183849752       -1.27277800650670
C           -6.02872937118252        1.26150339350461       -2.36464777066002
C           -5.28759697579142        1.80137455147186       -3.37110733447283
C           -3.88695988810525        1.76132861682717       -3.30690968905114
C           -3.25809680337985        1.18925501737495       -2.24471222821340
C           -3.99040646283350        0.61756384388912       -1.16893138840244
C           -1.11861061478680        1.16071155909883        0.28242816095374
C            0.25582286176860        1.14317642034940        0.31688823505949
H            2.83620314510370       -1.02690434981779        0.23449327529770
H            2.83262763183398        0.62429882283178        0.84258968595943
H            2.85003142537665        0.32675325806512       -0.89793111753412
H            0.78799203981154       -2.05963878723192       -0.54640209875771
H           -1.66644863192991       -2.03889134030450       -0.61059840644465
H           -2.23769922751333       -1.13206200912343        2.10366403913433
H           -3.40723362344958       -2.15245951940592        3.97458730260180
H           -5.87619636174438       -2.20188297196346        4.03387263157985
H           -7.16431671452627       -1.20321300374247        2.17648949549439
H           -7.10718282380240        1.27299292718260       -2.38468891629337
H           -5.77418730952476        2.25690376729300       -4.21797258824432
H           -3.30744569578179        2.18765662543139       -4.10920247003464
H           -2.18337913977906        1.16150716211508       -2.21292511516930
H           -1.65717632849606        2.06241707899696        0.51786800036356
H            0.79813864107151        2.03823534229977        0.56888128185988
