34
 energy: -7.328898248137 gnorm: 0.000988589737 xtb: 6.5.0 (97a52f5)
C            2.55629118906815        1.13202780346579        0.07545065443984
C            1.29199501484241        0.34741609981931        0.03961629934123
C            1.29383177581110       -1.02485411828783        0.26435506144841
C            0.12249277163740       -1.74427823677180        0.23449711461737
C           -1.09935789558467       -1.12653756087760       -0.01891587883726
C           -2.31550170543757       -1.92942714236308       -0.10563489315289
N           -2.70015396411440       -2.92648130010911        0.78538705808131
C           -3.92053068748755       -3.48142045066406        0.41763882630723
O           -4.53232971493962       -4.36151472039162        0.99765956486849
N           -4.30059786241990       -2.81376013228247       -0.75962278919651
C           -3.31472044694582       -1.87345835518631       -1.07665008209291
C           -3.69314236803091       -1.22166132801545       -2.30818035878001
C           -3.08209198252561       -0.23835314214324       -3.08126316190711
C           -3.71082190525815        0.18060048554635       -4.23024933599425
C           -4.93308965555600       -0.36547868727212       -4.61789910871409
C           -5.54561382503674       -1.34047215291038       -3.86197351595153
C           -4.92290891630367       -1.77152165718014       -2.70117010796686
C           -5.33432414189102       -2.78966486690437       -1.72196581525551
O           -6.34718784205970       -3.45924729075613       -1.75558065915842
C           -1.12286807156986        0.27975560168558       -0.19813225785787
O           -2.29427526425886        0.98871965252574       -0.35805212696204
C            0.08481818970741        0.97908373195240       -0.18100878164137
H            3.42851516957598        0.48229108764921       -0.00009030557140
H            2.63531597237135        1.69447480461484        1.00620214805114
H            2.59841804153568        1.84001454053019       -0.75279999726991
H            2.22770139887634       -1.52491154375035        0.45527007916085
H            0.14114356047447       -2.81001574512744        0.38300435220823
H           -2.19728827051468       -3.18594305691383        1.62596606200227
H           -2.14314860108082        0.18352719136863       -2.76919918750764
H           -3.25335999801630        0.94346674178034       -4.83846721623203
H           -5.40564311662876       -0.01960327476002       -5.52258919006285
H           -6.48831324887516       -1.77050542028663       -4.15229470791980
H           -3.06505421514395        0.41192559860786       -0.19337152566085
H            0.05622061577184        2.04331684337899       -0.32596621684792
