81
 energy: -17.786801339622 gnorm: 0.000656741453 xtb: 6.5.0 (97a52f5)
C            2.08992478804193       -0.57071549390568       -1.19617193976956
C            1.01663699591708       -0.14312713413223       -0.25652279675491
C            1.26225802755766       -0.06283570602947        1.10732825205077
C            0.26904945440198        0.31063470390314        1.98151880222209
C           -1.02107068496381        0.60483695006622        1.52979765433426
C           -2.04911109189120        1.00488360150378        2.47765063538379
C           -3.43292017551968        1.17988389795294        2.13239784404071
C           -4.24364804777003        0.58753396613711        1.14338506206146
C           -5.48637305195701        1.18973007982984        1.19176933637673
C           -5.46138336244644        2.16570987198203        2.20015652006368
N           -4.22155844754275        2.13313705921305        2.76196119421724
C           -6.48037592466590        3.10481252317952        2.61971495644617
N           -6.28586517402623        4.00241615106352        3.58792026136884
C           -7.43336524280778        4.72350017987424        3.69354351229460
C           -7.64284910610937        5.81347561591024        4.58947719631313
C           -8.95441573421602        6.48034916418820        4.65447293325716
C           -9.06120240505835        7.87766111140798        4.62256927981799
C          -10.28477053903584        8.49665600285970        4.68332420184584
C          -11.45690669212297        7.75128642923932        4.77945595252048
C          -12.70498143369531        8.38500292295528        4.84027948664514
N          -13.74010579400830        8.91043614129820        4.89088243628279
C          -11.36218325886433        6.36262199121514        4.81331243051694
C          -10.14063572082315        5.73979702421911        4.75223841103538
C           -6.56954516017109        6.26502056155056        5.41349951155990
C           -6.59467236908406        7.28181695376579        6.39066164371699
C           -5.33947243647718        7.37728749600558        6.94912380875811
C           -4.52312004751533        6.41426337870279        6.33792238660560
N           -5.28651341657449        5.75054430369543        5.41579155905076
C           -3.13599852026208        6.11940779044473        6.58811074300965
C           -2.20373639654014        6.75785703602582        7.42087407151942
C           -0.98974180021919        6.11318577258257        7.28214363955465
C           -1.16114444302484        5.05315051348163        6.36811924599297
N           -2.48847814248178        5.08988046178149        5.97221873195763
C           -0.24308289341026        4.09321519359603        5.81207962987208
C            1.15671547819564        4.37598549982934        5.54247448109538
C            1.99917960766527        3.36419361033333        5.07172370378615
C            3.32418911901602        3.60860380268259        4.79829411152736
C            3.86292832444331        4.87674428850518        4.96765170044091
C            5.30318016786828        5.13443852747176        4.69063714818405
C            3.03376946101622        5.89098037895680        5.42808943554150
C            1.70795490504886        5.65097869363417        5.70424023483687
C           -0.85842200600524        2.90821077650476        5.27620236220785
C           -2.02423702295669        2.31697799319005        5.83073249298063
C           -2.52494132880166        1.45955028026653        4.90907624039889
C           -1.67517328288845        1.51068478808715        3.77321050747742
O           -0.56757913661826        2.28579897072409        4.07424338814483
C           -8.37762301062075        4.25390165269711        2.73124672258215
C           -7.77974154015444        3.23770782800732        2.06184887207196
C           -1.25635317021422        0.52891062313177        0.15341596803497
C           -0.25867299009377        0.15678797057547       -0.71725959549797
H            2.16876151340783       -1.65804053250463       -1.22305645784055
H            3.05806816602931       -0.16963554348276       -0.89428109972191
H            1.88957991741954       -0.22261925085563       -2.20999860285708
H            2.24663921751010       -0.29469868077848        1.47646364578334
H            0.47877503762789        0.38797084640006        3.03416963762356
H           -3.95977172079420       -0.22324358208406        0.49391066786581
H           -6.32987752843797        0.96100657684724        0.56217609482440
H           -3.90605004196011        2.77173643066606        3.49126081818609
H           -8.16551066105712        8.46546123172931        4.52080823817847
H          -10.35245142480946        9.57082067096480        4.65329695010735
H          -12.26495488892447        5.78109472099777        4.89199695696244
H          -10.08011955968233        4.66661558873387        4.80546813311755
H           -7.45454856010865        7.86691351826857        6.66963022691418
H           -5.03525936757530        8.05615249417665        7.72812270793527
H           -4.98948101961106        4.97043759520725        4.82478222551283
H           -2.40632758418567        7.60741851500491        8.05130055061422
H           -0.08584481997321        6.34626472836662        7.81928832678448
H           -2.91246043932062        4.48457669981065        5.27063423578774
H            1.58863597527287        2.38268723371706        4.91214942585191
H            3.95719356804574        2.81358142430514        4.44312353535212
H            5.91101212260944        4.91556931738055        5.56915704314720
H            5.47108479805041        6.17627945624117        4.41557591084981
H            5.66203487182885        4.51393006939134        3.86875356387187
H            3.44149797463499        6.87809423961108        5.56340507908121
H            1.07744512597675        6.46201806001792        6.01799416061349
H           -2.46988040378440        2.57150297015907        6.77751708340753
H           -3.44251908001317        0.90090594249295        4.98474767536989
H           -9.36156925930546        4.65187617809084        2.54730025075849
H           -8.19526554981610        2.65430227781607        1.25687394332822
H           -2.22195059192553        0.79950475762201       -0.23198418678803
H           -0.45993111466972        0.09921384555165       -1.77330110857784
