82
 energy: -17.761606119323 gnorm: 0.000943355611 xtb: 6.5.0 (97a52f5)
C            2.16208699922718       -0.55202504059933       -1.16492683737282
C            1.07518597056399       -0.12361546516733       -0.24174029269875
C            1.30226844132058       -0.03669087182518        1.12476840292424
C            0.29651144320614        0.33832422574802        1.98349816269064
C           -0.98796616871235        0.62766298240630        1.51314357649222
C           -2.02841532529826        1.02967904116289        2.44621007103091
C           -3.40721974548205        1.20841840579963        2.08333144764134
C           -4.20861418537841        0.61743803687034        1.08638426560838
C           -5.45243585689710        1.21805153606644        1.12532074295978
C           -5.43744634137840        2.19154205097702        2.13604470187321
N           -4.20174726013260        2.16064719069946        2.70652769827529
C           -6.46343120707655        3.12326315864009        2.55502317142931
N           -6.27941864694624        4.01611110549517        3.52963383361993
C           -7.43320793183618        4.72623608407219        3.63713850392190
C           -7.65625487568364        5.80643181141309        4.54203754263606
C           -8.97694641881518        6.45334962590458        4.61522347616109
C           -9.10513316762514        7.84987331093846        4.60065138712199
C          -10.33923697947754        8.44637414055807        4.67090876427099
C          -11.48663553054547        7.67752051811752        4.75881472351334
N          -12.79890638477601        8.31721040877262        4.83851046619925
O          -12.85674410735047        9.55850372763694        4.86432377008703
O          -13.81163567198741        7.59769714795652        4.87818218979023
C          -11.38151115236078        6.29780953606141        4.77576947781475
C          -10.15181299119232        5.69261996995446        4.70555831643088
C           -6.58968736762545        6.26199343604271        5.37241236334070
C           -6.62679820991951        7.27008987178889        6.35798956714024
C           -5.37515912292169        7.36996017146327        6.92329829266192
C           -4.54850920707214        6.41874239546041        6.30778221066512
N           -5.30256459165590        5.75807501612436        5.37565253100789
C           -3.16162876201698        6.12949226400989        6.56483419529640
C           -2.23843133743838        6.76442705037581        7.41004492941549
C           -1.02171681695377        6.12333134574740        7.27786595156445
C           -1.18196687377327        5.06923569365565        6.35531586353456
N           -2.50534819912133        5.10667252143456        5.94732886795449
C           -0.25851882597978        4.11220380813713        5.80255483532024
C            1.14080058312428        4.39902193086626        5.53568864239160
C            1.98337752526158        3.39360427193317        5.05210185386499
C            3.30729051762860        3.64254512727604        4.77838364429627
C            3.84532002085086        4.90901024706876        4.96094566190240
C            5.28373586909498        5.17239920331341        4.68072829420056
C            3.01669662164613        5.91685448437118        5.43584239053069
C            1.69178501883298        5.67194083478805        5.71207950552480
C           -0.86880532760236        2.92813797356709        5.26017031917721
C           -2.04072184951716        2.33685747594953        5.80136243883635
C           -2.53206407429173        1.48124832309360        4.87301840755198
C           -1.66988771219879        1.53349636476541        3.74667448406730
O           -0.56510017093064        2.30665723745503        4.06125375110607
C           -8.36999584964153        4.25623587200815        2.66827739513988
C           -7.76180427281630        3.24947841629911        1.99389686601290
C           -1.20479586632419        0.54452443140245        0.13436192668455
C           -0.19453156448224        0.17084888767889       -0.72093442240469
H            2.23864790336972       -1.63937553274963       -1.19400956352762
H            3.12605795429241       -0.15446763806401       -0.84571458486424
H            1.97946280192206       -0.20012098167826       -2.18066960189753
H            2.28201658140472       -0.26412492325196        1.50862072719703
H            0.49203239790696        0.42089310342266        3.03836591179222
H           -3.91911801040681       -0.19338725454846        0.43952060416226
H           -6.29035996620238        0.98795925891689        0.48892630003793
H           -3.89283604829392        2.79697582322926        3.44060323127288
H           -8.21972463567294        8.45375969966604        4.50397115581522
H          -10.43350169393904        9.51862147093773        4.65582018067657
H          -12.28021827226901        5.70994665947407        4.85019564815663
H          -10.07590796661455        4.61997344858893        4.74750928034566
H           -7.49192706555665        7.84678213825259        6.63811613570351
H           -5.08024337959885        8.04364292796614        7.71027373294676
H           -4.99731932928855        4.98428649579119        4.78038839492095
H           -2.44855631132183        7.60848295405364        8.04526079301817
H           -0.12341288581084        6.35477174538834        7.82493960467443
H           -2.92131352065437        4.50599024541268        5.23698314231447
H            1.57334526325633        2.41398154728883        4.88025497425887
H            3.93879937149480        2.85220512779760        4.41088506418306
H            5.89403688662220        4.96026923456727        5.55908314054415
H            5.44652298498824        6.21351906240707        4.40034076899081
H            5.64438135348816        4.54972238936311        3.86136682358488
H            3.42387344993726        6.90238085480457        5.58323919354567
H            1.06178449293603        6.47877290962793        6.03747450522157
H           -2.49745490893680        2.59181914881860        6.74265287913106
H           -3.45016260886151        0.92222394881751        4.93871412545349
H           -9.35640726939751        4.64769365570706        2.48330184421489
H           -8.16980796709700        2.66831202022580        1.18356804216361
H           -2.16548448118822        0.81120646153911       -0.26576957481787
H           -0.38184818006253        0.10756670450056       -1.77915120841674
