90
 energy: -18.958354585665 gnorm: 0.000429296433 xtb: 6.5.0 (97a52f5)
C            2.37790567561010        0.02420676551454        2.95542275575857
C            1.76905458520988        0.99484242958967        2.00372484569702
C            0.42046778611202        1.31493841251071        2.08387220403186
C           -0.14252529192321        2.22694386248132        1.22069529568697
C            0.62825041261633        2.86753419925994        0.24672412120835
C            0.05106180231278        3.81379676678826       -0.71048706760748
C           -1.18135050914959        4.50310765911618       -0.47642626109923
N           -1.93482747780348        4.93140697545717       -1.50751797688833
C           -3.11866284909519        5.34549289567763       -1.01780792690450
C           -4.19783638219184        5.67193232317307       -1.89835337785123
C           -5.60333405748896        5.63689591937710       -1.49054968607231
C           -6.55908929577398        6.34312566433649       -2.22586803299447
C           -7.88770926172731        6.32410766774264       -1.86936101171340
C           -8.31831035529188        5.59644473346025       -0.76820973246343
C           -9.75958645464064        5.56095553949979       -0.39438239543167
C           -7.38070552541577        4.86557977212628       -0.05074842097735
C           -6.05020090484900        4.88259800014664       -0.40244359055505
C           -3.86716354479828        5.84829999504525       -3.29215862387659
C           -2.66462654281409        6.42049626783431       -3.78048657880848
C           -2.52151670522518        6.06692963961556       -5.08657717422432
C           -3.63016058519330        5.25979396743698       -5.46232236798539
N           -4.47710200092326        5.20468744718303       -4.35935076657586
C           -3.63498303978148        4.36464779459189       -6.60928254677102
C           -4.82168079779888        4.25551568734480       -7.46585211041883
C           -4.73336623487388        3.89212242516816       -8.81321585016818
C           -5.85839270077633        3.80292107575084       -9.60134625746637
C           -7.11645879521291        4.08190387967023       -9.08490695923180
C           -8.32785646307955        4.00150958288736       -9.94745367927059
C           -7.21029884792333        4.49055407128315       -7.76168743340336
C           -6.08776312341848        4.58164143974723       -6.97245781678841
C           -2.48056587163974        3.53465378477688       -6.76962948926506
N           -1.45991640390633        3.58948856156515       -5.89087975334219
C           -0.62316422074342        2.56562236448623       -6.15231135203134
C            0.44347939133017        2.22014270445837       -5.26570295813497
C            1.07461388812225        0.89605813552024       -5.26156377520292
C            2.39079316244255        0.75331430138911       -4.81371839172228
C            2.99838479781661       -0.48038770029245       -4.77465779327731
C            2.31292415774154       -1.62370063298974       -5.16308249347158
C            2.97695180172040       -2.95678755317713       -5.14440345443042
C            1.00111823571500       -1.49300283111258       -5.59870369876101
C            0.38929872351483       -0.26110069924203       -5.64202690249243
C            0.72853389808805        3.12878294501851       -4.18559416307396
C            0.53584302746365        4.53485965995152       -4.21608128106294
C            0.44117733034570        4.98204294475188       -2.93309952844086
C            0.56981432245944        3.86925554758371       -2.05765015271485
N            0.85507069113051        2.76507855519792       -2.85125049429073
C           -1.10573493823063        1.84486679872324       -7.29756713937344
C           -2.26326762811459        2.43307985570668       -7.66979061241877
C           -3.09512015924820        5.24794448329771        0.41703260509847
C           -1.89437889324780        4.72586179683035        0.75252987360815
C            1.98299132647252        2.53413309600355        0.16940806797360
C            2.54148939936188        1.62276155578215        1.03584441648339
H            1.66658977927777       -0.75587287572077        3.22996318050898
H            2.69649583691940        0.52634946627167        3.86974480000996
H            3.24999578369429       -0.46332052058202        2.51773119996282
H           -0.18756892378479        0.83287234428307        2.83037539523354
H           -1.19901406118733        2.42097100112847        1.26712108356396
H           -6.23920328808662        6.91199509556409       -3.08170673651044
H           -8.60895001778876        6.87671204548643       -2.44701318056520
H          -10.26695432621731        6.47885321108123       -0.69423181281946
H           -9.88362014337404        5.45241969908619        0.68388987065232
H          -10.26468153388358        4.72373666005283       -0.87767544498671
H           -7.70895475217550        4.27539483050074        0.78785910308082
H           -5.34820903420232        4.27648465855246        0.14139017374590
H           -1.95317188817241        6.96918284229509       -3.18662511159977
H           -1.67132605508195        6.27916240316348       -5.71301289767339
H           -5.18604538990849        4.48629218685699       -4.22117787895690
H           -3.76471766656542        3.73774634927586       -9.25364905078501
H           -5.76972701547432        3.52291909166041      -10.63727953530390
H           -8.23484277517669        3.19981488377014      -10.68125775100727
H           -8.48148747252838        4.93658250645697      -10.48749752113273
H           -9.22185292797481        3.80445377171214       -9.35437800823661
H           -8.17628152392862        4.74125021602250       -7.35749738334248
H           -6.17839103711509        4.91997937425672       -5.95783392296725
H            2.93090962733336        1.63115920331196       -4.50322271205112
H            4.01758803710408       -0.56862300967028       -4.43902898542279
H            3.80622919179839       -2.97542636456028       -4.43610523224843
H            3.37118130402006       -3.20657364375684       -6.13025633997138
H            2.27590467474529       -3.74015606182357       -4.85337043034530
H            0.46033715004249       -2.37426267968170       -5.89919345110579
H           -0.64368187225174       -0.18857630098993       -5.93223730947210
H            0.38324715065286        5.12079914257374       -5.10671259296669
H            0.19641778647662        5.98546665037307       -2.62717315518144
H            0.76837859181004        1.80421518858579       -2.52544293939342
H           -0.63932570386054        0.99309833842955       -7.76382164089164
H           -2.92007605924843        2.08854685382602       -8.44967515543612
H           -3.87103323999101        5.56179593468486        1.09523423647814
H           -1.53056221692786        4.53822860492514        1.74901200647662
H            2.59181757238578        3.00737986584769       -0.58141049666089
H            3.58972788541860        1.38660850276368        0.96767852080259
