116
 energy: -24.430790534247 gnorm: 0.000537131042 xtb: 6.5.0 (97a52f5)
C            2.77507162551942        0.14008946962540        2.89790949260233
C            2.09100111850288        1.08541291707632        1.97277283056596
C            0.72890960075227        1.32927482819735        2.08498841864844
C            0.09899277882197        2.22165410119462        1.24847266269008
C            0.81329070250597        2.91732562154387        0.26955542301107
C            0.16710223542464        3.84502860208182       -0.66072630381077
C           -1.08667020850460        4.47814010143780       -0.38379808019023
N           -1.88143582345811        4.89052131773622       -1.38867709704111
C           -3.07238673583652        5.23772031177515       -0.86565509061392
C           -4.18545833080548        5.52451671738793       -1.71779821581691
C           -5.57749826089034        5.37611690016952       -1.29318025373581
C           -6.59519806805029        6.01727315631060       -2.00440847098530
C           -7.91416109735356        5.87717382918008       -1.64051172342101
C           -8.27317858097005        5.08945310502259       -0.55545923059826
C           -9.70367699032755        4.91679811721048       -0.18002679012484
C           -7.27130700700040        4.42658403412323        0.14041012436801
C           -5.95027214543976        4.56464023054323       -0.21847162274582
C           -3.89110956201809        5.75826496945053       -3.11019620924298
C           -2.72491332645870        6.39418112255295       -3.60329133924385
C           -2.60078606271898        6.09537026075513       -4.92602701705721
C           -3.68628958924400        5.26242812480102       -5.30464463234140
N           -4.50017624289267        5.12903326309339       -4.18572396194344
C           -3.69349561771540        4.41398896555134       -6.48978879149489
C           -4.89061465959833        4.31048546648107       -7.31535488743763
C           -4.84161833721381        3.94349317147969       -8.66829491414581
C           -5.98156568760035        3.85843015912841       -9.42199545342272
C           -7.23969970024188        4.13863298945198       -8.87526536993895
O           -8.35132785201511        4.02442128405226       -9.70907636530097
C           -9.61378062875617        4.00180024787014       -9.15837040755008
O           -9.88603146478334        4.00135523378764       -7.98029043655706
C          -10.74752865891695        4.00385278269192      -10.16847866442873
C          -10.41236017974489        3.13959874893308      -11.37734068288334
C          -11.09822452467453        5.41540506274163      -10.56686430872481
C          -12.42001176216004        5.79575672291073      -10.73301866134679
C          -12.73677889855063        7.08023673967017      -11.11220149164566
C          -11.74320878097345        8.02718705836567      -11.34323620774457
C          -12.08746577483535        9.40718948826151      -11.74256519352078
C          -13.17997051407759       10.06338769518974      -11.17817014317435
C          -13.50626912809725       11.34695021429797      -11.55827351096096
C          -12.74884937604458       12.00151893344242      -12.50811535500286
C          -11.66124271657801       11.36912421454933      -13.07516067045921
C          -11.33338121338743       10.08594207844057      -12.69570493458873
C          -10.40579203449866        7.64135875528553      -11.19081788398212
F           -9.40170417094979        8.52588148178602      -11.40841645373320
C          -10.10584153452446        6.34800306030814      -10.80917686440222
C           -7.28551397997319        4.54411991394213       -7.53930435799317
C           -6.14679360842850        4.64105729320969       -6.78856410413155
C           -2.52359339319382        3.60896720117713       -6.69368244195158
N           -1.49251868432644        3.66423074069190       -5.82980037432299
C           -0.65119098293141        2.64929292534652       -6.11101527161734
C            0.42491096065109        2.29814627016551       -5.23609394694503
C            1.03082016602576        0.96287501371995       -5.22665368166450
C            2.34501655947129        0.79442850770173       -4.78235234810825
C            2.92266364487387       -0.45278285430505       -4.72918156294990
C            2.20859631351084       -1.58433145765484       -5.09926832981014
C            2.83925458013609       -2.93281027033896       -5.06106881514246
C            0.89952133366350       -1.42779781471085       -5.53362028401398
C            0.31753531107580       -0.18256353904633       -5.59101305448474
C            0.72887195417373        3.20418010122434       -4.16239313149680
C            0.50586293322275        4.60562402909457       -4.17450258011137
C            0.44970137135480        5.04207144312315       -2.88556010289986
C            0.63815583299918        3.92715287690023       -2.02415393934325
N            0.91552667710222        2.83478652381703       -2.83682520341124
C           -1.14272815301002        1.93613982994890       -7.25464619875770
C           -2.30983762621960        2.51980708619143       -7.60677135116247
C           -3.01224353499814        5.11376090572395        0.56517857206113
C           -1.78046182856623        4.64376153677560        0.86385526068805
C            2.18189878603610        2.65920755967733        0.15858457715171
C            2.80733257268098        1.76810361690288        0.99928207054468
H            2.09787419351373       -0.64919681482553        3.22601049598195
H            3.13895520656641        0.66159206988961        3.78376545765830
H            3.62787703501923       -0.33652556582784        2.41329431372798
H            0.16398471950865        0.80403693319896        2.83598769578715
H           -0.96513982476484        2.35746237986324        1.31905122640232
H           -6.33204163792019        6.62971529797457       -2.84928898813105
H           -8.68406934907176        6.37865112125376       -2.20149013483265
H          -10.28845438714927        5.79936650727679       -0.44149776408536
H           -9.81176901780630        4.75467777452697        0.89294070810672
H          -10.13795998796014        4.05990787329414       -0.69606779025972
H           -7.54182723038526        3.79090027740183        0.96607151673612
H           -5.19549038557410        4.00733409876266        0.30620493597891
H           -2.01723636434204        6.94181786505109       -3.00405104316324
H           -1.77416726791674        6.36115981673878       -5.56338517771419
H           -5.18399708451035        4.38372528555290       -4.06319811961402
H           -3.88605840121176        3.78956887744833       -9.13592967335529
H           -5.93084889984980        3.57845744311089      -10.45927739042597
H          -11.62103463397334        3.57423799569098       -9.65510528935742
H           -9.53677740378933        3.53473014655935      -11.89174550279022
H          -11.23538567132587        3.11572797292985      -12.09244789563689
H          -10.18448357264551        2.11495751126692      -11.08201169934527
H          -13.20070812661965        5.07444506826171      -10.56315175851895
H          -13.76718495057616        7.36051304298798      -11.24633956599931
H          -13.76412928173475        9.55935789502651      -10.42777632252277
H          -14.35360902343642       11.84121198763053      -11.11193801292272
H          -13.00475877983880       13.00556642586517      -12.80467563031468
H          -11.06658439441576       11.88024337137187      -13.81444826603105
H          -10.48124611181089        9.59287680654005      -13.13087034848766
H           -9.07461882859763        6.07083825381468      -10.68980664874647
H           -8.23916184593181        4.78111413692805       -7.10676875364155
H           -6.20857292921651        4.97498747577576       -5.77022241836777
H            2.90672710476613        1.66275628515868       -4.48413771691893
H            3.94029524858954       -0.56115301128671       -4.39519411951040
H            3.65319898366959       -2.96741008586858       -4.33617193599742
H            3.24629096735361       -3.19716061852386       -6.03758093453413
H            2.11390446544284       -3.69709034634494       -4.77980322381320
H            0.33643131707744       -2.29936783031685       -5.82052276389605
H           -0.71472014801111       -0.08953964184229       -5.87757037085014
H            0.30723155489322        5.19392667748902       -5.05431079299308
H            0.19271607008825        6.03702233555703       -2.56271249699317
H            0.85595586834086        1.87121297221493       -2.51295251576725
H           -0.67994527921942        1.08735849103155       -7.72987304082965
H           -2.97632772932627        2.17253954969660       -8.37700298783945
H           -3.78651988208554        5.37926935214201        1.26547194783754
H           -1.38710771530466        4.45288960163860        1.84833953217153
H            2.74731518618435        3.17648856411571       -0.59708269920441
H            3.86529420647491        1.59165927821467        0.90722730223244
