118
 energy: -24.050183888571 gnorm: 0.000384826173 xtb: 6.5.0 (97a52f5)
C            2.86577607309521        0.05645472519894        3.11065549645032
C            2.16667318916796        0.97868100880578        2.17320023400780
C            0.80430864693677        1.21743581949533        2.29423733012138
C            0.16080240154683        2.08822703608300        1.44517867259928
C            0.86112960861535        2.76867145340279        0.44543884505503
C            0.20347810812416        3.68281181972909       -0.48972530041945
C           -1.05774604168517        4.30426400505348       -0.21854945864659
N           -1.84615190044948        4.71715699066756       -1.22844352452480
C           -3.04304773970389        5.05726339177506       -0.71387956534696
C           -4.14821860407058        5.35075512217106       -1.57487886427448
C           -5.54401691236534        5.18032794648329       -1.17152312587632
C           -6.56107575132600        5.81286830565946       -1.89162745483019
C           -7.88321750449324        5.64799167584027       -1.54970351173350
C           -8.24582193138592        4.84348175675436       -0.47791823885259
C           -9.67852546943429        4.64203125485443       -0.12521308261918
C           -7.24406090013412        4.19036159928757        0.22740661890599
C           -5.91998174969272        4.35308162109975       -0.10983792708169
C           -3.83739401839265        5.61173592556925       -2.95871882923402
C           -2.66652846492691        6.26074519563847       -3.42384044784262
C           -2.52311152811119        5.98750719996362       -4.75017901796169
C           -3.60073063143318        5.15844943492147       -5.15895219460680
N           -4.43055913953953        5.00264520135483       -4.05469390767161
C           -3.59206760767409        4.33581475305161       -6.36294038667576
C           -4.77338643384872        4.27276258165913       -7.21493665524185
C           -4.70637122633394        3.94397379787995       -8.57702995740557
C           -5.83123416077353        3.92291916563256       -9.35814760149492
C           -7.09089911265626        4.23241082407656       -8.83072326110475
O           -8.18868135099072        4.20828494050884       -9.69142592759397
C           -9.46158348103267        4.17383915025784       -9.16139675471983
O           -9.74983060631311        4.02610862754095       -7.99590159626700
C          -10.57996484909286        4.37499957030178      -10.16956757776481
C          -10.26782152329459        3.68055498506169      -11.48916069793812
C          -10.85934822140400        5.84593135914801      -10.36003209530308
C          -12.15759978219820        6.30973299181413      -10.49794945027753
C          -12.40845351921403        7.65336415341432      -10.68441991262657
C          -11.36803352786983        8.56800724570359      -10.74005052100971
C          -11.63459785603981       10.02805333696570      -10.96106749466055
C          -11.36082562744115       10.49366953443688      -12.40599516711827
C          -12.26471046732973        9.77006679144810      -13.40543416356486
C          -11.51345982949959       12.01106457393034      -12.52798952859475
C          -10.06922874753994        8.10087733600867      -10.61979048721649
C           -9.82038097339930        6.75775353989293      -10.43307184598226
C           -7.15509305748937        4.58898337440689       -7.48148222286788
C           -6.03112482719904        4.62197692734433       -6.70360655098879
C           -2.42030725433100        3.53312421904341       -6.56557488271818
N           -1.40680924558708        3.56571222479652       -5.67975308867360
C           -0.55273351598300        2.56588913587027       -5.97652375271014
C            0.51482989542782        2.20352593808450       -5.09497665952196
C            1.14563239570782        0.88039851819779       -5.11477939165512
C            2.44846565285911        0.72147535023975       -4.63425204252642
C            3.05232655190227       -0.51431908032834       -4.61127273944440
C            2.37654764801733       -1.64470281960233       -5.05103138252517
C            3.03281189358350       -2.98170696556671       -5.04469444300605
C            1.07859486844443       -1.49838384578361       -5.52100319195825
C            0.47042742808917       -0.26436915995083       -5.54771887259863
C            0.79693281203169        3.09018830944052       -3.99832179481057
C            0.57240775933705        4.49141480221105       -3.99127369524710
C            0.50287772354427        4.90776702225166       -2.69648223287693
C            0.68395461991956        3.78003210848678       -1.84994235514937
N            0.96963969825809        2.69982440196358       -2.67651089128406
C           -1.01787814574065        1.88684907135617       -7.15205963391483
C           -2.18194326863491        2.47493422292091       -7.50863528277430
C           -2.99501505429924        4.92592897139738        0.71687269952188
C           -1.76286056194783        4.46213953471848        1.02433156755198
C            2.22976788179602        2.51402304654118        0.32465291163408
C            2.86869928180938        1.64349568440129        1.17707595176867
H            2.18747772079948       -0.70864142712708        3.49020814209457
H            3.26731307816342        0.60379632451750        3.96425675179387
H            3.69438839428561       -0.45224213455243        2.61651546128274
H            0.24978702190789        0.70553870955096        3.06212991426492
H           -0.90346872186481        2.21797850056614        1.52324403407239
H           -6.29486654848441        6.43673779992884       -2.72718883332118
H           -8.65254087195255        6.14202424835145       -2.11816843105833
H          -10.28480420946907        5.49382079424250       -0.43570027593239
H           -9.80457442214239        4.52146105716552        0.95141097677051
H          -10.07528139782369        3.75093423426483       -0.61305477615078
H           -7.51657906396207        3.54251687119145        1.04300204575671
H           -5.16433664789203        3.80431917190917        0.42261844959275
H           -1.96961158510357        6.80085048618750       -2.80539104646645
H           -1.69017912486469        6.27055594369709       -5.37172360509762
H           -5.11691168304875        4.25574135481344       -3.95943057025211
H           -3.74634342780359        3.77284042937504       -9.02906496126570
H           -5.76573265249464        3.67729032819676      -10.40328798993448
H          -11.47978254771882        3.91786805293175       -9.73102360930325
H           -9.36669180180235        4.10269728381605      -11.93337099585390
H          -11.08010351009252        3.80163124021983      -12.20688665947689
H          -10.09378093905484        2.61365016444902      -11.34523107558277
H          -12.97359486840860        5.60866238707579      -10.45820394396991
H          -13.42136582486246        8.00255585310469      -10.78997192166019
H          -11.02659992315203       10.61217809384297      -10.26167563378216
H          -12.67395543895677       10.25442138121449      -10.70316369039420
H          -10.31402325076329       10.23178117774504      -12.64153923657939
H          -13.31343487786528        9.98423834564226      -13.19961718380458
H          -12.13344191607666        8.68860560219926      -13.35388748073755
H          -12.05981277960053       10.08369010371878      -14.42981169192020
H          -12.53418418387813       12.31395929784596      -12.29433477981562
H          -11.29150689220019       12.35540252353334      -13.53885941893322
H          -10.84919435279328       12.53713256158454      -11.84109461123519
H           -9.25236936571417        8.80023255870079      -10.67199125720888
H           -8.81015172725662        6.40117952524048      -10.33243825764164
H           -8.11012591630286        4.84504565251433       -7.06254627386412
H           -6.10541308662865        4.92389474220255       -5.67595787584797
H            2.98089834772941        1.58857896112889       -4.28321348349735
H            4.06055580592633       -0.61421960691176       -4.24725271333584
H            3.89187588921562       -2.99844729927102       -4.37297889333764
H            3.38219499624512       -3.24614111697960       -6.04341368294592
H            2.33940334947556       -3.75608916162336       -4.71429704953958
H            0.54542411049691       -2.36979228790497       -5.86105118891799
H           -0.55384365955381       -0.18226499100004       -5.86448302614539
H            0.38476356195962        5.09351354772065       -4.86415284607043
H            0.24444268682133        5.89838531132209       -2.36155103823175
H            0.90982663254854        1.73090250628166       -2.36974024206505
H           -0.53649981833771        1.06158266734354       -7.64973988118933
H           -2.82966274940864        2.15064078374424       -8.30449793828597
H           -3.77716038270248        5.18243990391095        1.41182426744914
H           -1.37406386610150        4.27722298224836        2.01178243590602
H            2.78503222578180        3.01738109774935       -0.44779472802279
H            3.92652819908477        1.46989872133696        1.07736063351257
