84
 energy: -17.889443098889 gnorm: 0.000620560616 xtb: 6.5.0 (97a52f5)
C            0.06185390461332       -3.10580084359928       -0.66763673883519
C           -1.05327623452677       -2.30303836120456       -1.24188057990776
C           -1.78423024921622       -2.77281220395406       -2.32482544309009
C           -2.79685209951860       -2.01924766530851       -2.87163208090103
C           -3.12189986709953       -0.76293296497335       -2.35490347120681
C           -4.19256810176605        0.03075889078159       -2.95659992865037
C           -4.68725511940155        1.24222328444352       -2.34409517337018
N           -4.93032659615689        2.37717455534142       -3.03898576258631
C           -5.27637893650691        3.32305783247074       -2.14177803763730
C           -5.47304745984052        4.70310342256040       -2.43668086153850
C           -5.86150966883079        5.65121989880208       -1.37045589247505
C           -6.94353266432257        6.51885208669504       -1.55157312203209
C           -7.31014819828349        7.40907875758169       -0.56934198100465
C           -6.60776369940997        7.48067126031335        0.62602688465813
C           -7.02691624477636        8.42891220020231        1.69526481484787
C           -5.52940471073967        6.62588230211912        0.81328722594038
C           -5.15736674295618        5.73272958403107       -0.16463230667266
C           -5.18125872413591        5.21324232155247       -3.73672450900339
C           -5.01133388159420        6.57941632252230       -4.07999355606298
C           -4.55204066633456        6.65077379096355       -5.36537648136888
C           -4.45746109301398        5.33181230508390       -5.87040548822206
N           -4.87134891821699        4.48272959055891       -4.86072699823123
C           -3.92663175225348        4.88170382236726       -7.13106597212900
C           -2.77639707572693        5.50698033351211       -7.74769343089443
C           -1.97167949400985        6.50064226461784       -7.18235560498086
C           -0.98612573232825        6.79701705201430       -8.10179754240465
C           -1.20583340927011        5.98776284331521       -9.20011451684178
O           -2.28863454373149        5.19654315192751       -9.00270832736786
C           -4.44926187254153        3.65725720280255       -7.68359460948683
N           -3.70688076747795        2.58572413534874       -8.04257450780436
C           -4.54945353845662        1.52007982110318       -8.09991858604867
C           -4.11302825623879        0.17350095682826       -7.75707235592670
C           -2.83520706430987       -0.32761790141728       -8.25084061789203
C           -2.37299876688046       -1.59364308846939       -7.88314640907165
C           -1.18053179505969       -2.08097320680340       -8.36639019824389
C           -0.40511777605270       -1.32988150344702       -9.23991968875418
C            0.89722885519779       -1.85078698694715       -9.74018480074005
C           -0.85054172799789       -0.06495313466184       -9.60036511685796
C           -2.04099911956070        0.42608946767646       -9.11719370472331
C           -4.66409974710987       -0.39310074192675       -6.53613990945549
C           -6.01080858001450       -0.23866511344484       -6.08182565746369
C           -6.00774604652983       -0.14336323988961       -4.72320366738631
C           -4.67246497675670       -0.29772875595457       -4.27544264816244
N           -3.88810220050309       -0.54723726617341       -5.38964453629987
C           -5.90284037370893        1.98737218837339       -7.91915701576322
C           -5.83484302319974        3.29720015742924       -7.62401704301295
C           -5.32498532620438        2.74338797739667       -0.82675044053569
C           -4.92949507038126        1.46149257400589       -0.94694445736036
C           -2.36864983898349       -0.28985403163189       -1.27779591161860
C           -1.35516342425120       -1.04602824800972       -0.73535548265211
H           -0.09029854908810       -4.17200195536018       -0.83950274882580
H            0.14177180703451       -2.95258006355378        0.40922952142754
H            1.01368254102266       -2.82455101732440       -1.11967458164613
H           -1.54606196709682       -3.73747622744368       -2.73924905726669
H           -3.34989514006162       -2.39332532341444       -3.71508847068528
H           -7.49857655520835        6.47014865656409       -2.47265572187278
H           -8.15323382226184        8.06136167045898       -0.72026939879264
H           -7.38768695004928        9.36578834046998        1.26901264745340
H           -6.19613244060090        8.66664012448809        2.36060041720174
H           -7.82925585642104        8.00200546204423        2.29810610888287
H           -4.98084012032722        6.67020952033229        1.73853656987960
H           -4.29857393545966        5.10058833917320       -0.01877478084123
H           -5.16214222113227        7.41312640772189       -3.41504388676719
H           -4.32006329883423        7.55040884561569       -5.91027894813045
H           -4.80332497365806        3.46210549422405       -4.87962508442123
H           -2.08202613046608        6.93048442994073       -6.20174957560176
H           -0.19466107086159        7.51923887856427       -7.98496880708968
H           -0.60349821600999        5.97623514107183      -10.10066671598829
H           -2.96737151751225       -2.19151156254636       -7.21451640454391
H           -0.83681268888062       -3.05666700626997       -8.06821507383173
H            0.87612356650143       -2.93717119154506       -9.83429076890949
H            1.70669637630782       -1.58739090279930       -9.05846096180750
H            1.13544327185097       -1.43867843685860      -10.72144804243193
H           -0.24728928860446        0.53507707963071      -10.25995423124125
H           -2.36066145832386        1.41711773617427       -9.38278497916880
H           -6.88354550180174       -0.14799354767855       -6.70606557054618
H           -6.85662765694615        0.06390605832578       -4.09324660014340
H           -2.87631457235004       -0.42809634356649       -5.38157582252359
H           -6.80339226053541        1.39999818549971       -7.97926662859904
H           -6.65250496001510        3.95299866041087       -7.37409940234398
H           -5.60719099119354        3.24065103408373        0.08583422015160
H           -4.84927461002418        0.72880640096165       -0.16108548597852
H           -2.57107679728464        0.69081859142763       -0.88600567636943
H           -0.77978559529080       -0.66346857573145        0.09031618863634
