88
 energy: -18.283248655277 gnorm: 0.000428134092 xtb: 6.5.0 (97a52f5)
C            1.74601072794453       -0.20055692216189        3.07884316436037
C            1.29665327690082        0.87838831232427        2.15560455786934
C            0.02799646664598        1.42891589598841        2.27378323631788
C           -0.38798046378373        2.43545946506170        1.43224411645503
C            0.45810800638068        2.94571303188979        0.44432014593943
C            0.00384720538003        3.95165190511074       -0.52552862431735
C           -1.14780459104819        4.77781429070846       -0.30029588676629
N           -1.90840487525762        5.18848165726614       -1.33443197288467
C           -3.05319692986400        5.70487548925746       -0.84501964954092
C           -4.15930626900382        5.97553614519461       -1.71844555899959
C           -5.55742681780926        5.90116915125708       -1.27411483344373
C           -6.57554618318454        6.46235083398258       -2.05043435755367
C           -7.89683161221891        6.34648494262104       -1.68885759027648
C           -8.26041354105721        5.66802705426801       -0.53405726256517
C           -9.69168155753075        5.52427693075124       -0.14815542916815
C           -7.26014413400865        5.08734045516064        0.23307369923282
C           -5.93659024849922        5.19723583500930       -0.12835907108469
C           -3.87174718147704        5.98921151476178       -3.11655877331333
C           -2.64393617001384        6.33809733770234       -3.69437947285788
C           -2.48037074283326        5.89986060927001       -4.99934299944856
C           -3.57319661412954        5.19679554352533       -5.52760660972998
S           -4.90422238608283        5.42098635146683       -4.40904311609864
C           -3.52612970867510        4.39098972282999       -6.71231150479404
C           -4.73304214532528        4.17424460718214       -7.53031012359171
C           -4.65292456151057        4.05588581461603       -8.92056759514047
C           -5.78199453954212        3.86135163145153       -9.68352125040120
C           -7.03658017671729        3.78021447342035       -9.09458866671162
C           -8.25851176172107        3.59073460679952       -9.92469156313486
C           -7.13068760965697        3.92647541668926       -7.71779592999349
C           -6.00581855101661        4.12164773303644       -6.95273028584235
C           -2.31273189160787        3.66411600982903       -6.94191389558763
N           -1.32145535804318        3.66134327609987       -6.02760907718336
C           -0.44412972755761        2.68874207400048       -6.34888683043635
C            0.56615235589200        2.26605882618112       -5.42481913401114
C            1.16677524445060        0.92421464413069       -5.45782377575313
C            2.39520259068652        0.69141413227778       -4.83169939063251
C            2.94577106790950       -0.56710459016906       -4.78151125808984
C            2.29347418590867       -1.65015596341497       -5.35418432162575
C            2.88096094404658       -3.01809357073350       -5.30534052461302
C            1.06604149408313       -1.43453906007678       -5.96472343862609
C            0.50864056520535       -0.17673481804394       -6.01200637492157
C            0.76142541493139        3.07088723861159       -4.26326262489306
C            0.49175191010435        4.44174055063217       -4.14662630990891
C            0.34415821335977        4.88742920060990       -2.84024045165126
C            0.48917628863840        3.88880813387420       -1.86579966149229
S            1.19200858064450        2.49970988839119       -2.66521875611221
C           -0.85987001489301        2.08022654150169       -7.58530173284604
C           -2.02129706645284        2.67108936490943       -7.94307513722855
C           -2.98496914529080        5.70358663230665        0.59352945796694
C           -1.80853920335491        5.12912819203572        0.93002773454385
C            1.73507224128811        2.38595041859992        0.33772632649486
C            2.14513065921484        1.37727844315544        1.17714779426233
H            0.91454837262317       -0.84795899458269        3.36057622189786
H            2.16837473037985        0.22164043999118        3.99148786736968
H            2.50834630665371       -0.82620357243801        2.61285055364857
H           -0.63816224304982        1.04874035604253        3.02949888880653
H           -1.39514482892074        2.80399262078673        1.50388328573765
H           -6.31128262174374        6.99720464907298       -2.94587779350526
H           -8.66431342801115        6.78553197052983       -2.30327414733439
H          -10.30603317113302        6.29728483144837       -0.61154107815258
H           -9.81595353474099        5.60660870028603        0.93240140623089
H          -10.08097153085598        4.55411512442751       -0.45935946144198
H           -7.53379200233070        4.53540020344117        1.11620380881474
H           -5.18534284400248        4.69426686629435        0.45286319835235
H           -1.85992638783509        6.81513279534436       -3.12814517812989
H           -1.55929175800596        6.01407186390725       -5.54841681439914
H           -3.69529304155618        4.16065740104149       -9.39958107872689
H           -5.70052057475807        3.77711688369942      -10.75383765649743
H           -8.03345447355742        3.03576674322136      -10.83632325435228
H           -8.68404255436538        4.55286815190254      -10.21245631515428
H           -9.02192921961504        3.03438814347139       -9.37927643658764
H           -8.10061104371607        3.88559991308751       -7.25189236350047
H           -6.10266495329982        4.22140738673691       -5.88862537462742
H            2.91483636054462        1.52104486581884       -4.38453404253025
H            3.89394520549015       -0.72129233302884       -4.29528505102298
H            3.87267423131328       -3.00986578511016       -4.85139853700321
H            2.97804159408700       -3.43517182819352       -6.30854204623487
H            2.25161787733373       -3.68989047676024       -4.72026019092968
H            0.54459265335486       -2.27220058771171       -6.39585702302456
H           -0.46997694130951       -0.04575132866041       -6.43697358360712
H            0.30304994385414        5.06238938202723       -5.00788779222290
H            0.02990166405703        5.88832251953798       -2.59031796095100
H           -0.34618886498482        1.29934861138636       -8.12070628572718
H           -2.63214029842714        2.40793807783161       -8.78933728556432
H           -3.72280238431101        6.10119352765475        1.27028181185133
H           -1.42693049164985        4.97982967737493        1.92635412160617
H            2.40460813482910        2.75813542955489       -0.41788429771226
H            3.13459645731558        0.96388236940804        1.08053047443449
