83
 energy: -17.533899926076 gnorm: 0.000356801282 xtb: 6.5.0 (97a52f5)
C            0.86607974391149       -1.38687620618084       -1.40285911984591
C           -0.53796009114746       -1.06035831630908       -1.77679665654215
C           -1.26343189654960       -1.90214790050439       -2.60909684097086
C           -2.55116195642107       -1.59059165408008       -2.98083466820710
C           -3.16275759292712       -0.41376903853102       -2.54218816573036
C           -4.53606202365621       -0.08276111379945       -2.93176610234899
C           -5.18282743183861        1.08202560431478       -2.33744124384474
N           -4.60593997099215        2.30535931205821       -2.34715202890970
C           -5.53341976841403        3.19302665438271       -1.94586764280915
C           -5.34535890261429        4.62900965956600       -2.08468404434302
C           -5.83652231614030        5.55426898651920       -1.05925651026905
C           -6.13513560881793        6.88586656619605       -1.35616520807683
C           -6.61401899385806        7.73738380415307       -0.38713464622530
C           -6.81137443781429        7.29699116970237        0.91462140544113
C           -7.35613729962853        8.21371782491488        1.95410299427698
C           -6.53239344841028        5.97024365963964        1.21366982444666
C           -6.05371548927967        5.11443091625925        0.24835526748449
C           -4.76709623553840        5.08018005655338       -3.30850937934072
C           -4.04056896230584        6.23430686420370       -3.62671624136834
C           -3.57840913229974        6.27765616372806       -4.93975934874801
C           -3.92309143480725        5.16280116595246       -5.71280122746710
S           -4.96273998827132        4.14510192671923       -4.75945615763724
C           -3.53390988732089        4.75229176846491       -7.01874478008055
C           -2.34222374992606        5.25264549607115       -7.67913362366724
C           -1.30279257309798        5.98924946670254       -7.10248861571561
C           -0.37074724264385        6.22152729148424       -8.09365139106933
C           -0.85256830607613        5.62884661037148       -9.24470878133478
O           -2.04760451210636        5.03328448395623       -9.01172264382469
C           -4.21720915475522        3.60204362210209       -7.59085725556852
N           -3.60854645100427        2.44401057150460       -7.93647220619541
C           -4.54804858287223        1.46008166580661       -7.88196515268933
C           -4.23702312730566        0.07083439431587       -7.62598820028170
C           -2.99541104502635       -0.50518357710030       -8.13485431873687
C           -2.62120303919469       -1.80618118223802       -7.79091072566084
C           -1.47237848293028       -2.37153220437189       -8.29472941662694
C           -0.65014190438922       -1.66369627026121       -9.16039136677882
C            0.58608246961062       -2.29132850991141       -9.70460028317541
C           -1.01077921821712       -0.36739258800403       -9.50413530426200
C           -2.15731162014587        0.20092605250754       -8.99951169132124
C           -4.87592165664050       -0.55885478393591       -6.47382553213837
C           -6.25060597610696       -0.48134018637568       -6.09118613604598
C           -6.32776978917697       -0.47313551569706       -4.72706317574917
C           -5.00995808404129       -0.57360198074276       -4.20489497934098
N           -4.16637531633777       -0.74021235575388       -5.29288718590823
C           -5.82905747373358        2.05195589573280       -7.60673210998933
C           -5.62399146018786        3.36646023622063       -7.42483621295916
C           -6.75584022736412        2.50625581840964       -1.62228747104116
C           -6.54949275064636        1.20285181572323       -1.90044971256561
C           -2.42325176410914        0.42713537967659       -1.70895758662308
C           -1.13715129454387        0.11231212258195       -1.33713706169413
H            1.00926818264463       -2.46463032124803       -1.31671802936814
H            1.13325767679229       -0.94020795967155       -0.44444316039429
H            1.56277591566997       -1.01345232406988       -2.15423915441910
H           -0.80460970189975       -2.80900765062816       -2.96433278779991
H           -3.10559762054027       -2.26269260534715       -3.61231231042649
H           -6.01597111187228        7.23818906962955       -2.36518098601929
H           -6.84739447597429        8.75882061467071       -0.63489258840285
H           -7.07467384714579        9.24812357594989        1.75337245963536
H           -6.97868379833697        7.95460453502775        2.94397232817710
H           -8.44504619926924        8.16105194292843        1.98404885919200
H           -6.69770353924345        5.61389539832506        2.21605945463274
H           -5.83550397643355        4.09037131509645        0.49649432982872
H           -3.80539765074728        6.99102381967184       -2.89478902017904
H           -3.00032387933446        7.10102479724402       -5.32742354291688
H           -1.21180885967275        6.27229814607412       -6.06856055590795
H            0.56196463415749        6.75102344397924       -7.98683897409575
H           -0.35155263333595        5.62611257573875      -10.20536405629754
H           -3.24889421293470       -2.36963670123885       -7.12315977464132
H           -1.20048958519564       -3.37668647359554       -8.02110045277365
H            0.34230823570601       -3.16293593066945      -10.31322013995707
H            1.24369611245285       -2.61690797430347       -8.89773042783375
H            1.14536035497266       -1.59401994175933      -10.32926815885388
H           -0.37859933940958        0.19543061679707      -10.16931087297953
H           -2.40845888903056        1.21408834904165       -9.25331391508687
H           -7.08428587416498       -0.37432781576729       -6.76506144040982
H           -7.22233194902161       -0.32086195726816       -4.14724541701061
H           -3.16953052068816       -0.53740531531967       -5.23756357667048
H           -6.77477629873483        1.54453698250681       -7.52658976769794
H           -6.36152036567999        4.10216858336343       -7.14698444643988
H           -7.67570082981529        2.96394427938763       -1.29869401862711
H           -7.25907458830486        0.39835462422986       -1.80121393972138
H           -2.86759201365149        1.34748933337100       -1.37838753188096
H           -0.57916389386509        0.78123132520556       -0.70447972258224
