72
 energy: -15.800105651173 gnorm: 0.000302813341 xtb: 6.5.0 (97a52f5)
C            2.49335697855369       -0.21390932164732       -0.12757479080501
C            1.00430115050537       -0.19969342531313       -0.13446963869919
C            0.27277610685109       -1.38025036669996       -0.11311576020519
C           -1.10214461667452       -1.35895532158339       -0.11402543660530
C           -1.80306861868774       -0.14828070121270       -0.13738363808136
C           -3.28560578712849       -0.11681210563008       -0.12182300062179
C           -3.97942796295722        0.53327645847621       -1.18042274156582
N           -5.31568165956581        0.67753224688969       -1.33194907402353
C           -5.49281257554823        1.36072695915325       -2.48733002093877
C           -6.71607961302850        1.79721258468379       -3.06365609399278
C           -6.65899190518996        2.65278917342567       -4.24773736251570
C           -7.54539372557322        3.68842269671369       -4.56650304622859
C           -7.12096455103910        4.24176186456399       -5.75718482624029
C           -5.99234321705618        3.54741389077183       -6.14096957649860
O           -5.69226674706125        2.58639447451035       -5.23517422334739
C           -7.97226375902515        1.39707285403027       -2.53511987412443
C           -9.22880899618769        1.64635376166072       -3.13352958556631
C          -10.19488716739069        1.09139007912811       -2.34936094340635
C           -9.56790681904526        0.45627002561443       -1.25244299376308
N           -8.21184032756410        0.66340110290688       -1.39259412777132
C          -10.24176409409579       -0.21198480669048       -0.19599618837802
C          -11.68807534068304       -0.41384194730189       -0.26477239701931
C          -12.43266500587912       -0.68882969836293       -1.41814671501703
C          -13.75165086444802       -0.82033942229692       -1.03504301033402
C          -13.79222814709847       -0.63029730622512        0.33085865651222
O          -12.55101916280249       -0.39058760816230        0.81644333003381
C           -9.55127676889011       -0.67081472918828        0.95958621197749
N           -8.21457314526920       -0.71316050542810        1.16997177071044
C           -8.04038115797143       -1.27238436646903        2.38979143835616
C           -6.81570094731710       -1.53469670992673        3.06476344663844
C           -6.86991667418548       -2.06138375754054        4.42646889374285
C           -5.95374951779629       -1.80097645399820        5.45221942586690
C           -6.38463915963726       -2.48242614762846        6.57215980683877
C           -7.54617845498828       -3.13752931696374        6.21911413513615
O           -7.86009262002575       -2.88847237215599        4.92536234175470
C           -5.56268772382897       -1.32335175241185        2.43542350869673
C           -4.30555655491753       -1.73301732673021        2.94316581837631
C           -3.34109967424829       -1.34544025758485        2.06315367373536
C           -3.97073014655190       -0.70223735066381        0.97129673879043
N           -5.32622896398993       -0.71618471947684        1.21921774847448
C           -9.30715088774581       -1.58251360045862        2.97456352199021
C          -10.24295650381391       -1.21934176287074        2.08388212945812
C           -4.22672016153766        1.64970565590868       -3.08694847273759
C           -3.28698820035604        1.12666037771649       -2.28368140100680
C           -1.05721890964657        1.03554171422422       -0.15863451271666
C            0.31715309559563        1.00593698336197       -0.15713130466957
H            2.88225605693753       -1.23245821231583       -0.13035915329625
H            2.88104558286285        0.28872846180634        0.75909956028412
H            2.88979063461537        0.29681431617603       -1.00569286703582
H            0.79538727739402       -2.32103955251332       -0.09628348462759
H           -1.65800095991530       -2.28069841021579       -0.11003503585604
H           -8.36852514574855        4.03269555497680       -3.96363718631336
H           -7.57739659382400        5.06493124445381       -6.28193762570582
H           -5.41175822455379        3.73632273115773       -7.03614066270497
H           -9.40060337824636        2.15334434503496       -4.06717059042385
H          -11.25470372203576        1.16526662984267       -2.52176088445854
H           -7.49107388629251        0.32252656419063       -0.74638002280714
H          -12.04155609479066       -0.83413438727249       -2.41087672884573
H          -14.58841913839163       -1.04013475966338       -1.67750928899141
H          -14.68357289565470       -0.67107804971263        0.94561048324118
H           -5.10397191739934       -1.14195051926821        5.39703345415954
H           -5.91102745263113       -2.49238112861538        7.54011098016657
H           -8.14074643562759       -3.76199410488943        6.87531998053626
H           -4.13624411702759       -2.29415843911166        3.84598096159174
H           -2.28151587364313       -1.49762106240628        2.17955650564977
H           -6.04643116316294       -0.32532930893356        0.60120332911671
H           -9.47102290268528       -2.03957253133181        3.93523345151311
H          -11.31000195573529       -1.30881193035638        2.19347849924454
H           -4.06728823842809        2.16664196629440       -4.01753574522956
H           -2.22215488118591        1.14018011291337       -2.44569813314843
H           -1.57819088517523        1.97747904337291       -0.15824029572893
H            0.87647581527680        1.92562168325229       -0.16940134054432
