67
 energy: -14.340151572947 gnorm: 0.000829367066 xtb: 6.5.0 (97a52f5)
C           -0.11652502557941       -0.33621751381488        0.45628380722717
C            1.07222379745144       -0.36701908810332        0.68525687178863
C            2.46689138445553       -0.42740312214165        0.92752705302276
O            3.16155765416521       -1.43884184488855        0.18962406446323
C            4.52628401034652       -1.49374335146348        0.40484157757603
C            5.25503566873255       -2.46072725488090       -0.30977266646326
C            6.60916397176768       -2.57949668787546       -0.16956395368304
C            7.32592498127234       -1.73938458167185        0.69507662163286
C            8.76337894083992       -1.86570326884915        0.83288379192190
N            9.64947819726079       -1.00637646630476        1.42816458440014
C           10.94224590293676       -1.44966705784253        1.33449473748480
N           12.05588119390030       -0.87182714732713        1.78498848679812
C           11.85273695531573        0.32437500387383        2.33701343860458
C           12.88034321479141        1.21142030906942        2.81993580639554
C           14.31316161183891        0.93089744615897        2.88046881618057
C           15.24329746488222        1.93934430284059        3.13757001622242
C           16.58895054062810        1.65575965284143        3.20722074244217
C           17.03772981225519        0.36264670787191        3.02608475312796
C           16.13404433016129       -0.64933064554430        2.77281272996880
C           14.79038850224959       -0.36584143052241        2.69939670586969
C           12.25188262669162        2.37405892752061        3.22969322888014
C           10.86058401245345        2.24472684035339        3.04286085953138
C            9.87322526979908        3.25873754537261        3.35404539647192
C            8.50547152299891        2.96252629737167        3.40259279225685
C            7.57291146345629        3.91698939947115        3.69396190300893
C            7.96268858283380        5.24101515883441        3.96218003658663
O            7.05988896042523        6.22384818831307        4.25799179753248
C            9.33507681356888        5.54237003876515        3.92058718893440
C           10.26016684718068        4.58019358514547        3.62748221317943
N           10.67188192466148        0.99720606923277        2.50764817316814
B            9.35113387260775        0.31682318787729        2.13815398097080
F            8.64465687094695        1.13995890962807        1.27527354736717
F            8.65273241153160        0.04672215921211        3.30515807270991
C           10.87492028932519       -2.69923305077415        0.62080557668896
C           12.00377363027504       -3.54527849212467        0.23939836594819
C           11.81438373659194       -4.84711205869872       -0.22738123369534
C           12.88771529117003       -5.62587716287068       -0.59832134889396
C           14.17187991348016       -5.12492906197775       -0.51748456595089
C           14.38035591402292       -3.83924746927179       -0.06092835271228
C           13.30903790603958       -3.06312601663390        0.31396561499521
C            9.54179991908225       -2.92700938623401        0.32829467629337
C            6.59763784773028       -0.78627242421898        1.41544240576815
C            5.24374584017411       -0.65916871433056        1.27972427147366
H           -1.16274811603116       -0.31391992431997        0.25213313936161
H            2.64659409720923       -0.61511657336640        1.99317343086829
H            2.92460300444876        0.53682354670748        0.67466123464347
H            4.71438030907584       -3.10665410829907       -0.97864700076273
H            7.13758771890202       -3.32048674841988       -0.74227163651508
H           14.90281075343843        2.95037646001073        3.27422263246914
H           17.29498728938675        2.44584939656823        3.40426787666236
H           18.09135497194671        0.14345476643859        3.08307740170274
H           16.48145536618358       -1.65994952973690        2.63385943087494
H           14.08284809674330       -1.14978161077028        2.50952025077278
H           12.74521147918932        3.22539005053451        3.66253551080660
H            8.19667673206012        1.95152082287786        3.21923835272559
H            6.52875992202934        3.66246642998909        3.72455757759659
H            6.15200002865366        5.86423170420368        4.25158594780895
H            9.63877357778166        6.55378712420988        4.12398017095825
H           11.30300061211602        4.84047137638435        3.59069098849638
H           10.81770386418666       -5.24672303763856       -0.28876637408510
H           12.72493893511286       -6.63020001460830       -0.95386787459158
H           15.00994883566989       -5.73592960585717       -0.81006550759036
H           15.38088283361532       -3.44371887383916        0.00121889396717
H           13.46482930552227       -2.06080873313725        0.66343448545391
H            9.16263198066992       -3.77929912011562       -0.20571704798141
H            7.12692371545743       -0.15397903074681        2.10161404166394
H            4.72418010987309        0.08587880148367        1.85359148920069
