76
 energy: -16.117007315211 gnorm: 0.000303625339 xtb: 6.5.0 (97a52f5)
C            4.57349469441618        2.66801817441674        0.49326668541547
C            3.23757803354546        3.25089074490965        0.18840727638541
C            2.08580225569476        2.48398597717210        0.29853711706443
C            0.84850193364478        3.02541193742882        0.03556042277681
C            0.71234407329534        4.36299875516950       -0.34044816184231
C           -0.60265477035541        4.92209981486669       -0.64673249958270
C           -1.83154773273642        4.14382193512064       -0.54846397429825
N           -2.78961006080019        4.32257027646811       -1.47890731890246
C           -3.96992102651492        3.93797590989916       -0.95580723024330
C           -5.17951700474933        4.42682340143472       -1.57241986801828
C           -6.29515599036068        4.93510967602372       -0.79733217535891
C           -6.43270259050499        4.92184461827169        0.59467150255227
C           -7.62175247664447        5.55313418634317        0.89478010003305
C           -8.18413273915827        5.94199957027609       -0.30534709691615
O           -7.39089720883177        5.58130752265594       -1.34145390362202
C           -5.07691793605646        4.80872245470541       -2.94965823171788
C           -4.31417118738642        4.16305305898355       -3.92278352274756
C           -4.17359316770522        4.87147535748936       -5.11047121752746
C           -4.76958569977374        6.13796639737455       -5.10779097939193
S           -5.77102520503834        6.23564402339652       -3.66963266739435
C           -4.47757483202512        7.18293623641866       -6.07741802784113
C           -4.28680559805309        6.82745342220209       -7.47078105676256
C           -4.72526466828511        5.64873623080638       -8.08243011094860
C           -4.34934440181391        5.71567131408929       -9.40774490823654
C           -3.70026967872105        6.92399016469010       -9.57974744445161
O           -3.65823573793209        7.61489620865005       -8.41516222509650
C           -3.82706199815687        8.40613824408375       -5.59779829137004
N           -2.47570342366098        8.53432853365385       -5.62694782165535
C           -2.10918905073538        9.35968384686113       -4.61258439865105
C           -0.84904807146981        9.12739266069169       -3.88445152546351
C            0.43691023597036        9.41607713942617       -4.52071526332803
C            1.64273199837426        9.34010173221189       -3.81826502089749
C            2.83810635178714        9.63938165194314       -4.42744995634117
C            2.88127328120460       10.02065488238505       -5.76170444849015
C            4.17310062453759       10.37622500509001       -6.41137179464814
C            1.68761679328891       10.10508263137548       -6.46560780771222
C            0.48966408940590        9.80559287956183       -5.85954255716870
C           -0.91796828316657        8.26530119272919       -2.75382047020602
C           -2.10297714246102        7.95587780818085       -2.07440829340782
C           -2.02140919872118        6.86125322278892       -1.23769215270726
C           -0.77544372015275        6.21732119946126       -1.21219684690135
S            0.33987345595042        7.24237185504202       -2.08835399476084
C           -3.30679704253352        9.89654399778892       -4.00920786041026
C           -4.35822351947676        9.28680763126168       -4.59314161960832
C           -3.73182012708284        3.35014315622786        0.33683790829958
C           -2.40476345944327        3.46090788700195        0.58430809737282
C            1.87763721799902        5.12737405167693       -0.44195460298136
C            3.11194484152480        4.58346372022993       -0.17843748326486
H            4.59092014167551        1.59659833266628        0.29078655863115
H            4.83017548699258        2.81702934634167        1.54252997170668
H            5.35210305271863        3.13146492768844       -0.11352730859417
H            2.17046176398850        1.45142143669710        0.59110685784414
H           -0.03059531497932        2.41010007254466        0.10654069576470
H           -5.72891478318387        4.53410687191529        1.30858922121510
H           -8.03040516411942        5.71913148937332        1.87814903524835
H           -9.12535793552995        6.46683574545589       -0.41745179900156
H           -3.80692810145943        3.23087465167466       -3.72732552576710
H           -3.51887919155074        4.54817023654047       -5.90481807753833
H           -5.26754887386920        4.84874013008399       -7.60784067517242
H           -4.52855628021832        4.96925971685514      -10.16430093462568
H           -3.27787990680060        7.28189615686742      -10.51121030293303
H            1.63032889004696        9.06592341014392       -2.77972063463561
H            3.75639950220814        9.58624606451092       -3.86807769723368
H            5.00610392661902        9.84638830311422       -5.94820375965918
H            4.36605799763317       11.44624753493619       -6.32744692418564
H            4.16441171519342       10.11731766090205       -7.47063959516726
H            1.70860421810653       10.40847481602856       -7.49828316457248
H           -0.42667516339156        9.85308097073977       -6.42018394247708
H           -3.03858853119809        8.45272968262797       -2.26632730692042
H           -2.88411747156968        6.45854161491822       -0.72978984995109
H           -3.34345278237401       10.57512931731666       -3.17245913285430
H           -5.39570589177713        9.38251510843059       -4.31885138507592
H           -4.46563766661648        2.89313506237091        0.97899945333808
H           -1.89211875496296        3.18683244349630        1.49116602151460
H            1.80586734991657        6.15848476857451       -0.73049720791799
H            3.99745263826950        5.19065182818183       -0.25717687001733
