110
 energy: -23.086242917061 gnorm: 0.000641527508 xtb: 6.5.0 (97a52f5)
C            2.79224534069594        0.03823375485901       -0.36462447652096
C            1.30301026639812        0.04345087467878       -0.33608997103776
C            0.57883287455876       -0.92699707619157       -1.01498370213086
C           -0.79837417161642       -0.91820956119555       -1.00211670029061
C           -1.49664097140500        0.06498298647619       -0.30194532111991
C           -2.98191636052212        0.04463933946002       -0.23991594635157
C           -3.68415469333558        0.63176563746276       -1.28467319540910
C           -5.07502011968976        0.68664538499543       -1.32373356659272
C           -5.78506738204077        1.34187117888134       -2.40212862700743
C           -5.23103095236891        2.02303860827402       -3.42229018424249
C           -5.97690259035528        2.66867151761287       -4.48473508235173
C           -5.31889477886433        3.52845848245609       -5.37133102659155
C           -5.99978569834613        4.16099084177117       -6.38124188618709
C           -7.36910804820456        3.96051698411967       -6.56051705671202
N           -8.07924929276777        4.62732358738623       -7.60588163323757
C           -7.40270380264381        5.03426685039164       -8.80760183025333
C           -7.68637707899062        6.26480918612492       -9.39605567506683
C           -7.04363951429437        6.65850747327695      -10.54834968653636
C           -6.10798132240346        5.82971809736197      -11.13666259825284
C           -5.81945143643874        4.60361456268801      -10.56892977865035
C           -6.46102656167887        4.20768991582028       -9.41657202552490
C           -9.48218729026552        4.91206212793185       -7.47005689141820
C          -10.34373148132540        4.75775903743682       -8.55389332551287
C          -11.68706516223964        5.03273988068806       -8.42907498817399
C          -12.19501626475309        5.47017792625094       -7.22114392209393
C          -11.35280940742038        5.63424979171962       -6.13832372906250
C          -10.00909294943332        5.35953666837425       -6.26049675389569
C           -8.02584583742349        3.09410293816661       -5.68562492656840
C           -7.34927159222915        2.46439217622531       -4.67087382266576
C           -5.79683203264448        0.10277813730366       -0.25251081918664
C           -7.28205614114898        0.10614374827719       -0.22632761297323
C           -8.02034047564440       -0.54264028120238       -1.21542156048229
C           -9.39731464620853       -0.52059662024207       -1.19639682580784
C          -10.08382117670705        0.14127152160833       -0.18698901129952
C          -11.57304451109189        0.17659474694706       -0.16270021019613
C           -9.35228115799660        0.77831478637709        0.80557873294314
C           -7.97496238975984        0.76141572514528        0.79014533135250
C           -5.09664916223886       -0.47232749975293        0.79752367727273
C           -3.70400774155098       -0.52842590374579        0.84327310509415
C           -3.10083136606633       -1.16689669554112        2.00064077440341
C           -1.79859922187853       -1.44886432705899        2.19180533544738
C           -1.22460219311258       -2.07776541197191        3.36205424441375
C            0.15941412778114       -2.27660650446104        3.41840392270958
C            0.74715799232996       -2.86210229077381        4.51109938304728
C           -0.01922574620084       -3.27742188805074        5.60069268219718
N            0.59530591536733       -3.87768210814009        6.74368770866393
C            1.93061751556450       -3.50680558330417        7.12563694877258
C            2.83028194961787       -4.46484522592619        7.58771424042595
C            4.10745048016319       -4.10878963806030        7.95934841944637
C            4.50989367106580       -2.78959458116210        7.87892819710224
C            3.62891765946973       -1.82691003235522        7.42511745257359
C            2.35144817255674       -2.18068704812282        7.05255966831781
C           -0.11255486092666       -4.85537224295682        7.52369512765551
C            0.01593478744312       -4.88520273428190        8.91061401499736
C           -0.65866035972686       -5.82321158630229        9.65962613885871
C           -1.47306830938285       -6.75028757812365        9.03844887791927
C           -1.60836513189776       -6.73673595179860        7.66359575384745
C           -0.93420084002353       -5.80000587542000        6.91251593019078
C           -1.40018437305094       -3.08255733327496        5.54693513225990
C           -1.99128116699864       -2.49615468244993        4.45539009365851
C           -0.76691373620621        1.05500399589549        0.35502950729003
C            0.61023893255449        1.04151313582262        0.33583958212185
H            3.18085359940522       -0.97900156861599       -0.42944271937176
H            3.20491252123665        0.49226800997307        0.53727198708437
H            3.16521561564003        0.59687766393366       -1.22397926473315
H            1.10787618543311       -1.69488895544138       -1.55337754605267
H           -1.35267809824803       -1.68239742163986       -1.51948614726272
H           -3.11476758691223        1.06094570788094       -2.08775075002121
H           -6.85625854908210        1.30075870387968       -2.35210404909440
H           -4.16223315787004        2.12537054576946       -3.45875890087951
H           -4.26302498367249        3.69835277508746       -5.24663468604461
H           -5.48265501461422        4.83557567776514       -7.04069722628799
H           -8.41262609486392        6.90773816073156       -8.93011523967646
H           -7.27026334580828        7.61485705467245      -10.99100197205433
H           -5.60423993591115        6.13905711719863      -12.03800489146855
H           -5.09211197145856        3.95502243817489      -11.02947014166340
H           -6.24982874804249        3.24821975964122       -8.97753525615341
H           -9.94242833890530        4.41279603445134       -9.49076487124285
H          -12.34304261348607        4.90597410919932       -9.27493503542955
H          -13.24681160834852        5.68473249492178       -7.12407389300834
H          -11.74782247585268        5.97884166751158       -5.19655385564945
H           -9.34668817427780        5.49667300079790       -5.42366405152234
H           -9.07723303553490        2.91413486406041       -5.82616371066813
H           -7.88132880107803        1.79228873248409       -4.02163496500792
H           -7.49704548965391       -1.06539217790887       -1.99784463248231
H           -9.95387779296995       -1.02027761087459       -1.97089771653371
H          -11.99911191158146       -0.39511571307002       -0.98819286916500
H          -11.93812767921518        1.20139478002059       -0.24381214775958
H          -11.95661609162733       -0.24510560009139        0.76739801629501
H           -9.87700436760115        1.29202591419537        1.59315754962586
H           -7.41640445717294        1.26439032244830        1.56086740850675
H           -5.65968158894084       -0.90451619836204        1.60556383594021
H           -3.78821961585591       -1.44649877319492        2.77820868693226
H           -1.09974973142225       -1.19827757121800        1.41966775112531
H            0.76524135049056       -1.95889674245814        2.58694027369535
H            1.81154027422761       -3.01740923893223        4.53548643157733
H            2.51285019307556       -5.49148912596429        7.64330399091135
H            4.79400979088948       -4.86047612118098        8.31361985662891
H            5.50976552617283       -2.51172888263946        8.17023204705131
H            3.94160032170549       -0.79719363269622        7.36394435703284
H            1.65739107820108       -1.43356478346788        6.70893734791732
H            0.64718068987515       -4.15726498443037        9.38967265700612
H           -0.55178529478100       -5.83338314407031       10.73217199315742
H           -2.00153671364618       -7.48364986051234        9.62555541500078
H           -2.24124326985432       -7.46153761893172        7.17777636254765
H           -1.02613718765428       -5.79314044735487        5.84043579980588
H           -1.99880734713459       -3.38643885930197        6.38773176654797
H           -3.05711018767015       -2.35486327712690        4.44551488803974
H           -1.29714274995733        1.82330919483873        0.89110692428351
H            1.16366868024515        1.80886823339942        0.84972557899381
