77
 energy: -15.626978357238 gnorm: 0.000608149267 xtb: 6.5.0 (97a52f5)
C            2.39306269095256        0.02743664927652        0.39366415408437
C            0.90927045063028        0.01502375766238        0.26211035032137
C            0.16826473141716       -1.10198672962238        0.62180736239338
C           -1.20533011856682       -1.10368767899834        0.51266235688507
C           -1.88659152082379        0.01739409523764        0.04333002746554
C           -3.36243328031674        0.01666490323637       -0.07730897112477
C           -3.98874040903977        0.62659069100464       -1.15761634486196
C           -5.37505873976648        0.63524278485623       -1.29526038057491
C           -6.01958500590919        1.29052742172824       -2.42087641310083
C           -5.41339555685826        2.07310320662962       -3.32961582589835
C           -6.07930672619910        2.72169963737507       -4.44330722766219
C           -5.40655304066493        3.70747729717488       -5.17278182409152
C           -6.01174008808822        4.34581112191330       -6.22621760361132
C           -7.31495379188678        4.02526553491303       -6.60644594789180
N           -7.94739215974104        4.69496926375325       -7.69981736716224
C           -7.16278535653008        5.22623646584252       -8.78064248382631
C           -7.47743861267819        6.46034471706874       -9.34452663408580
C           -6.73037515136675        6.96977579676462      -10.38272615364806
C           -5.65666224089371        6.25599129381958      -10.87851894436220
C           -5.33385399807686        5.02879928236029      -10.33266249713944
C           -6.07960215800821        4.51709428697111       -9.29450750461252
C           -9.37484576401097        4.86148277698337       -7.72486030036455
C          -10.08303479395233        4.72580337687609       -8.91654775764318
C          -11.44966091384307        4.89058151590782       -8.94479582419969
C          -12.13450609801261        5.19588553491127       -7.78464682471806
C          -11.44628169786072        5.33786945189787       -6.59538619817297
C          -10.07959517922306        5.17393872673311       -6.56471054963493
C           -7.98492376670952        3.03484071303627       -5.88786227552013
C           -7.38409543785540        2.39809808383135       -4.83048346449257
C           -6.16460441372503       -0.00500537290766       -0.31687680788960
C           -7.55529342085117        0.04567486404934       -0.44047960732577
N           -8.70726353734633        0.11218995212412       -0.58521156237904
C           -5.54361522411808       -0.63333472075108        0.78659781064933
N           -6.29146385184682       -1.28130849645585        1.80854515353436
C           -7.45190720284804       -2.15632466072217        1.53719967817544
C           -8.66123974800725       -1.73485713542013        2.37688421723756
C           -8.29637756316048       -1.69634034923601        3.87065406285808
C           -7.07064686645481       -0.79943214221526        4.11738250106159
C           -5.89060126309236       -1.21892126168227        3.23159183355928
C           -4.15429205848304       -0.59980893743603        0.88191717576795
C           -1.13910259947622        1.13935587796961       -0.30811477613163
C            0.23432749265730        1.13650130828601       -0.19764170997130
H            2.79189323898873       -0.98361500757889        0.48497066578413
H            2.69878609839219        0.58992215388470        1.27674062882822
H            2.85851941009325        0.48915673163214       -0.47815000705274
H            0.68004977301654       -1.97548536008012        0.98813037752973
H           -1.76464096335002       -1.98383216705683        0.77878798613802
H           -3.37596225203213        1.08194394577384       -1.91218658601927
H           -7.08190202717915        1.15465198774605       -2.49613794501379
H           -4.36266169409638        2.27128539836411       -3.22392646425812
H           -4.40140691454450        3.97046994645128       -4.89060445231264
H           -5.48871142779306        5.11673544296045       -6.76423180892573
H           -8.31100378991366        7.01426804139617       -8.94959339594647
H           -6.98277586573148        7.92715102017001      -10.80848884665257
H           -5.07180758808251        6.65576426275677      -11.69072695494125
H           -4.49782887779512        4.47022281783000      -10.72078523629772
H           -5.84031645004533        3.55629681960787       -8.87341524297809
H           -9.54449705682530        4.48248142472315       -9.81568282554323
H          -11.98610135398516        4.78044315760213       -9.87304984978407
H          -13.20435758585099        5.32425137356724       -7.80749151500873
H          -11.97967308438501        5.57917302963054       -5.69048641078917
H           -9.53686653087162        5.29642419593715       -5.64376697089203
H           -8.98324558136593        2.76520442945690       -6.18483740864349
H           -7.91980995184966        1.62834447963948       -4.30446022768620
H           -7.16137775973117       -3.18419775811796        1.77541862571292
H           -7.67390669098558       -2.14434848213788        0.46594478316172
H           -9.51521307441409       -2.40208750643530        2.19582753541750
H           -8.98774911433684       -0.73864591455955        2.05625110227964
H           -8.07832897091358       -2.71366709491750        4.21824122721615
H           -9.15259808438166       -1.35780379767632        4.47083718501934
H           -6.78365521925735       -0.81428330648492        5.17793712603969
H           -7.33288449308893        0.24222310758537        3.89593597655221
H           -5.51330642257462       -2.20266274003542        3.52670830406175
H           -5.05722504824452       -0.51674694705598        3.33748647847607
H           -3.67902790049797       -1.08440926884851        1.71402205013917
H           -1.64848330956039        2.02101508201255       -0.65671628366336
H            0.79947055380676        2.01245359751641       -0.46718852186043
