30
 energy: -4.476701871050 gnorm: 0.000483152103 xtb: 6.5.0 (97a52f5)
C            2.42325943151064        0.00558517092289        0.06722592100737
C            0.93649462219822       -0.01098930175826        0.01596278788527
C            0.22747398127410       -1.19767327059944        0.12520463482315
C           -1.14828865334229       -1.20337446708536        0.08986823048253
C           -1.86202593368958       -0.01834154691398       -0.05700262279933
C           -3.34298202134910       -0.02312613456257       -0.08775508364322
C           -4.04517685375866        0.61918416510481       -1.09286204625456
C           -5.42332875238466        0.59890181441036       -1.10007735782845
C           -6.18905904535650        1.27758672601424       -2.17504861147504
O           -6.13748630469612       -0.03391954373987       -0.14041842561626
C           -5.45395457811432       -0.66522314067955        0.84279421157898
C           -6.23650449287744       -1.36200304569473        1.89183629404539
C           -4.07781235810974       -0.67264920841909        0.88872547457051
C           -1.14793016132604        1.17036216324274       -0.16736578625959
C            0.22783141346744        1.17117032923775       -0.12910520923038
H            2.83145133282586       -1.00493494629682        0.08549851068329
H            2.77263587633738        0.52359371147206        0.96062626900548
H            2.83509138069748        0.51518672516483       -0.80410965807971
H            0.76450942075874       -2.12350075641457        0.23861184871414
H           -1.68696668262322       -2.13196662625641        0.16588292188770
H           -3.50936989881738        1.12373761844470       -1.87606834732179
H           -5.53133758308869        1.75760719822464       -2.89927100574409
H           -6.84198494927221        2.03859599915462       -1.74888575244023
H           -6.81304596608269        0.55782774216121       -2.70394951492000
H           -7.30238488589716       -1.25527796613452        1.69290724261565
H           -6.03106656443601       -0.94083717866397        2.87575427834736
H           -6.00001044985339       -2.42561450409646        1.91299787853310
H           -3.57087333562572       -1.17294755848179        1.69372373613812
H           -1.68622658585145        2.09657438890789       -0.27015630101836
H            0.76793859748210        2.09879544333470       -0.20955451768688
