118
 energy: -24.293193912330 gnorm: 0.000621482670 xtb: 6.5.0 (97a52f5)
C            1.43378959621886       -4.09354428449741        3.29657202360373
C            0.14470634764066       -3.48903903022800        2.85834391453178
C           -1.04473029375680       -4.19408720797207        2.96936994213277
C           -2.23460125767242       -3.64688546893325        2.54255128501801
C           -2.28373059332817       -2.36708844620920        1.98299531385275
C           -3.55790408596047       -1.78384822949777        1.52396071651827
C           -4.72892797789183       -2.16922736483240        2.10002140074933
C           -6.09064459966152       -1.83597904712465        1.73720626873858
C           -6.49342584933259       -0.89665936993278        0.83988058758196
C           -7.78596547252759       -0.93999121266115        0.10845197827511
C           -8.96154840431751       -0.62297100009798        0.79898704907828
C          -10.13933624000475       -0.38770340773436        0.13863029325431
C          -10.19769694470321       -0.44061705745619       -1.25617934945905
C          -11.46112176740083       -0.17404032275007       -1.98027676227674
C          -12.68371029416168       -0.62002871544367       -1.48225866701609
C          -13.85544773786751       -0.37958061494552       -2.16684248602518
C          -13.84743838583496        0.30704972809535       -3.37287762188093
C          -15.11802229687999        0.58871553805043       -4.09793409759085
C          -12.63318932919311        0.76184481458915       -3.86735686651611
C          -11.45895136686921        0.52297420699558       -3.18691141451199
C           -9.04885497621856       -0.78456099434063       -1.95193032210485
C           -7.83339558089160       -1.08490444683344       -1.32507220479325
C           -6.79826870139110       -1.77226659913244       -2.19512167125463
C           -5.69298644502721       -1.10699200180151       -2.84433678968881
C           -5.43135516157345       -1.32983274301555       -4.28588607321539
C           -4.12966604109274       -1.44155379780143       -4.77553932038453
C           -3.89553442226700       -1.62709618093457       -6.11982775442136
C           -4.95445067340156       -1.71147488566761       -7.00217669481446
C           -6.25036616132114       -1.61418678481405       -6.53502615578700
C           -6.48781782894544       -1.42741632969546       -5.19169412191797
C           -4.69722749628952       -0.37727810040283       -2.04206897470811
C           -4.62877950402139       -0.92612338099357       -0.65236548600612
C           -4.19679018443720        0.60685836781763        0.80796745930936
C           -4.29090262205096        0.95369754756528        2.29155818372606
C           -5.49981527752752        1.31680031623357        2.86302345178797
C           -5.57944615820566        1.65216917243702        4.19899198630979
C           -4.44689020069328        1.65266673094655        4.99843771478020
C           -4.53790294650753        1.98945210129394        6.44681599624971
C           -3.23513787161294        1.29992559216644        4.42437881422708
C           -3.15862364119408        0.96420633348221        3.08830182866584
C           -3.59685260565054        1.71438478045529       -0.02592582457196
C           -3.54307638898177        1.75302353828792       -1.36379132606945
C           -4.16939204206708        0.86311230959794       -2.35145000794504
C           -4.37841542413556        1.44340442732008       -3.70410399524836
C           -3.29005067677678        1.75216725175169       -4.52431693850278
C           -3.48153301603988        2.23191059221783       -5.79720164713263
C           -4.76633713678217        2.43660374162917       -6.30184826701149
C           -4.96820656999086        2.91563974755669       -7.68790023958665
C           -5.95210974888116        3.85558088951788       -7.98921869394080
C           -6.13403908575763        4.29796036491553       -9.28175639772866
C           -5.34017218004551        3.82181848791133      -10.31571769576074
C           -5.55665982223640        4.28772316836109      -11.71414358796636
C           -4.36741296232798        2.87614030375145      -10.02228918785492
C           -4.18088026809117        2.43191507372207       -8.73135862774158
C           -5.85327652216241        2.16177653680721       -5.47116053440785
C           -5.66424945425025        1.67952281834135       -4.19884940149406
C           -7.08770080961720       -3.18059501901987       -2.54056269413923
C           -8.31474876583419       -3.77032388862917       -2.22392703391809
C           -8.57246061474004       -5.08830510826783       -2.52640115828555
C           -7.60774400541115       -5.85962894784870       -3.14317938641275
C           -6.37991491839799       -5.30687928921849       -3.44770249109483
C           -6.12140447446760       -3.98895498543583       -3.14569049941040
C           -5.51056495852295        0.00884701936445        0.17725808542817
C           -3.51145935915195       -0.74515650244397        0.41935489579762
C           -1.07637170738823       -1.67486371902975        1.85638578056383
C            0.11063458382828       -2.22601875457760        2.28580494821076
H            1.28211055485471       -4.78814517317346        4.12403149659900
H            2.13397835858543       -3.32732677212088        3.63246188901177
H            1.90209224601392       -4.64236883629353        2.47829537292530
H           -1.02780951196758       -5.18526542428736        3.39012302779478
H           -3.13656683752687       -4.22928608814042        2.61237071099566
H           -4.64285767030877       -2.86240632311766        2.91974100935411
H           -6.86093026461621       -2.48235419308685        2.12654215606205
H           -8.91456544046430       -0.51406425969297        1.86925164018061
H          -11.02397163376886       -0.12167941372648        0.69114048977215
H          -12.70380589192564       -1.17009975577020       -0.55720778705147
H          -14.79342580602401       -0.72752319660081       -1.76840779853195
H          -15.85860343218697       -0.19061062556447       -3.91255185282952
H          -14.95387996686793        0.63925206096980       -5.17528928323775
H          -15.54367992467554        1.54063633282915       -3.77746811684892
H          -12.61702165141606        1.30994088182996       -4.79411728197657
H          -10.52533811174245        0.88686745425482       -3.58036513820172
H           -9.10945737932352       -0.89476290637879       -3.01976813803172
H           -3.30541926364589       -1.37248539561232       -4.08666663179545
H           -2.88376111361517       -1.70248317400830       -6.48387358912635
H           -4.76926955852472       -1.85450685173483       -8.05438288497886
H           -7.07728548542868       -1.68190106143269       -7.22310844541772
H           -7.49655945254594       -1.34419518125538       -4.82632231196847
H           -4.98095988106093       -1.97075033110067       -0.63800733259416
H           -6.38598715112998        1.32911080814157        2.25240929066744
H           -6.52849749116805        1.91737376912931        4.63324259094703
H           -5.30557731136788        2.74324869889129        6.62772771496740
H           -3.59222547244437        2.38476256753640        6.82043905448280
H           -4.78892085119416        1.10552625800396        7.03482530738142
H           -2.34773038387762        1.29012877469875        5.03427895357762
H           -2.21004930229812        0.70766851556117        2.65219774660907
H           -3.10810743728633        2.49472080088636        0.53265857435351
H           -3.04533736394235        2.60256833319493       -1.80366914308786
H           -2.29465363113773        1.58193453303458       -4.15141587397951
H           -2.63289414037069        2.45646983564065       -6.42016235876608
H           -6.56542756475798        4.24492862091002       -7.19483907040730
H           -6.89921699126785        5.02335687931797       -9.50088633600769
H           -5.80901536796450        5.34907121449790      -11.73946304173639
H           -6.37223790324902        3.73596883712449      -12.18425159281643
H           -4.66116804057563        4.14603290143801      -12.32133067170783
H           -3.75625746604015        2.48767432433494      -10.81927849584209
H           -3.42988290176811        1.69025084570607       -8.51978473740124
H           -6.85060177294245        2.30591686048726       -5.84948512671220
H           -6.51023987432841        1.45086642721881       -3.57353619135151
H           -9.06909500306972       -3.18305648657516       -1.73230716349640
H           -9.52878457487742       -5.52005671501677       -2.27884879617845
H           -7.81035223020933       -6.89139172754367       -3.38081025874072
H           -5.62167859772038       -5.90918005552869       -3.92147414912676
H           -5.15604426568607       -3.57188714166457       -3.37045579052911
H           -6.02617745674913        0.76864512553730       -0.43240296688287
H           -2.52074085734485       -0.61935707477754       -0.04023815081712
H           -1.07038276500206       -0.69028054105446        1.42409523228322
H            1.03000906995786       -1.67550521649629        2.17886280257292
