37
 energy: -7.609586847581 gnorm: 0.000663993746 xtb: 6.5.0 (97a52f5)
C            2.46423634757323       -0.20993723769754        0.12520820852683
C            0.98779679058381       -0.02532127181558        0.08298776440867
C            0.41297863727922        1.04390850882816       -0.57471423658824
C           -0.95229714211519        1.13745159258532       -0.60551617808540
C           -1.73048104547077        0.16207141375976        0.01219177927499
C           -3.20671128595059        0.25425788954558       -0.02454006775466
C           -3.84322976465803        0.86558122504451       -1.10266388435623
C           -5.20697892915344        0.94170786745298       -1.14243100347259
C           -5.93572785746361        0.39929036005621       -0.09152627100589
C           -7.38745454415084        0.42718910249525       -0.02873381735640
C           -8.19823765071908        0.85583320121444       -1.01008006844264
C           -9.64863563259745        0.88433050465886       -0.95246955073466
C          -10.36240487078325        0.58689332871183        0.21538977805098
C          -11.73593162225852        0.62253002244448        0.23029257039245
C          -12.43814034325102        0.95588969070506       -0.91920002093345
Cl         -14.16182390398412        0.99289211476633       -0.89969101380308
C          -11.74876536031875        1.25746057012968       -2.08481711254148
C          -10.37558582029332        1.22320423260149       -2.10073785617636
C           -5.20646073896032       -0.19140623989799        0.93560249134748
N           -3.89231137555026       -0.27907469670489        0.99509091613692
N           -1.18556523281103       -0.87829140461975        0.65382317189408
C            0.13499120105874       -0.94264753146237        0.66583459410726
H            2.98167634400069        0.74888216298291        0.08294157420355
H            2.80208033663223       -0.81287095625238       -0.71816951569236
H            2.77167025191621       -0.71176643122881        1.04325831699554
H            1.03340392933401        1.78474983995115       -1.04977297964509
H           -1.42414280509110        1.97687871949706       -1.08508112457465
H           -3.25906060405896        1.25333387830802       -1.91847688232148
H           -5.70289918008714        1.41665987378183       -1.97001560550603
H           -7.82805149550346        0.05445007578683        0.87732969836523
H           -7.75533284552171        1.19571662245350       -1.92790552317799
H           -9.83220658546717        0.33548436239988        1.11611170139828
H          -12.28514511549623        0.39349634279693        1.12783490087549
H          -12.30641115443548        1.51392891231325       -2.96956792317622
H           -9.84337595367051        1.45519608524715       -3.00716656126228
H           -5.74911456627496       -0.62477138958527        1.76039853071818
H            0.56699958771575       -1.79053134125828        1.17326119991059
