37
 energy: -7.584281382493 gnorm: 0.000981510896 xtb: 6.5.0 (97a52f5)
C            2.46553702098837       -0.21632683888474        0.12520448296121
C            0.98884293233610       -0.03511975343991        0.07742342419383
C            0.41448256015222        1.03638247460481       -0.57643276156872
C           -0.95082842214861        1.13009942484093       -0.60733202801794
C           -1.72956700558197        0.15295822440998        0.00676697826961
C           -3.20575551515298        0.25078091145059       -0.02607153078508
C           -3.84117731086393        0.87188012980025       -1.09941779952571
C           -5.20430490338180        0.95933937123920       -1.13415269260165
C           -5.93390254681719        0.41764071810397       -0.08363684893818
C           -7.38564044317831        0.44955744458701       -0.02054206086920
C           -8.19468182444873        0.88085079553570       -1.00212101917207
C           -9.64528843449580        0.90518740513439       -0.94783685040724
C          -10.36129539237474        0.60899590598955        0.21652872226273
C          -11.73316249645281        0.63589945051182        0.23012122877304
C          -12.46639674376159        0.96185495075483       -0.92227322139487
F          -13.87736009369951        0.98385202280161       -0.91035838971750
C          -11.74310018296901        1.26393230921130       -2.08699283152885
C          -10.37166132437071        1.23652442208958       -2.09651803373071
C           -5.20609428618770       -0.18148329910805        0.93955435595128
N           -3.89227498157129       -0.28049615882289        0.99446260945445
N           -1.18513944476224       -0.89136373218107        0.64241572112420
C            0.13575123557051       -0.95581086273903        0.65427933447618
H            2.98059770376825        0.74390218940490        0.08649112726778
H            2.80873110957199       -0.81706501196630       -0.71753565644248
H            2.77056342191141       -0.71856417362962        1.04391047680632
H            1.03508020371223        1.77932661483206       -1.04766139228822
H           -1.42223095364940        1.97170119199780       -1.08320023983801
H           -3.25668780732142        1.25984082233994       -1.91491499840519
H           -5.69940138980015        1.44226186171169       -1.95768925190497
H           -7.82786718666198        0.07331430444249        0.88316352994214
H           -7.75056521356932        1.22350188105079       -1.91811096607008
H           -9.83120752363654        0.36580462123821        1.11946355487872
H          -12.27285533112383        0.40651601417826        1.13248000885972
H          -12.28888171176921        1.51658388201095       -2.97925136303292
H           -9.83769628920828        1.46842086395310       -3.00183670086726
H           -5.75012599554031       -0.61189385244777        1.76493796810309
H            0.56807456649091       -1.80524652500657        1.15848311378323
