45
 energy: -8.910851498112 gnorm: 0.000998055770 xtb: 6.5.0 (97a52f5)
C            2.46178854562153       -0.30440705728068        0.12446725408379
C            0.98890994674473       -0.09363128256377        0.07844185372730
C            0.42931141513670        0.89753267627337       -0.70310436234826
C           -0.93356293491028        1.02394531465933       -0.72533839759809
C           -1.72552686152611        0.15716443580558        0.02441128197524
C           -3.19924979170234        0.28768226013423       -0.00496058739643
C           -3.83337836640951        0.77921804984837       -1.14499846536179
C           -5.19421977175542        0.89567422311727       -1.17874547013358
C           -5.92455864249052        0.51430429377930       -0.05920975299879
C           -7.37261378161673        0.58981780583868        0.01232224356611
C           -8.18106757914920        0.94171316269292       -1.00297194579090
C           -9.62787534163658        1.01228452649267       -0.94560579166802
C          -10.34984468510738        1.30455945502135       -2.10831852957264
C          -11.71945713266544        1.37434868565544       -2.09603727673165
C          -12.44440317361306        1.16082157909913       -0.91714245824703
N          -13.84596585764209        1.23649067854080       -0.90369892921015
C          -14.61779960127501        1.40100065420299       -2.13632056617318
C          -14.60976981478011        1.13035726196458        0.33966135696952
C          -11.72153021936430        0.87143167618954        0.24684735882134
C          -10.35140201120368        0.79841798639501        0.23346966137460
C           -5.19757386898975        0.03466662460387        1.02696498143325
N           -3.88619522385949       -0.08978606670688        1.08241289849718
N           -1.19507944621147       -0.80954536851862        0.78457511597661
C            0.12363997582417       -0.90711033099543        0.78546869998825
H            2.99557940892264        0.64455442500180        0.06088392732555
H            2.78911690926154       -0.93152451683051       -0.70560525055662
H            2.76227595121303       -0.79135226430873        1.05298136160276
H            1.06044015151766        1.55454700233280       -1.27757447605138
H           -1.39276928181641        1.80848169089055       -1.30090670075567
H           -3.24995315414737        1.04188050429891       -2.00988567468568
H           -5.68720979456345        1.27723195284596       -2.05515334751254
H           -7.81460709692067        0.32403650126120        0.95467085522146
H           -7.73575473803103        1.18044923042238       -1.95118663741067
H           -9.81200860075465        1.47233788190027       -3.02599196012263
H          -12.24691462541372        1.60702725823619       -3.00380730128123
H          -14.45361920528012        2.39435319881440       -2.55082361847913
H          -15.68322010316489        1.27728658774536       -1.95084861414938
H          -14.31592348883585        0.65418133253811       -2.86893760313938
H          -14.21913934991342        1.82678712765726        1.07972418880247
H          -14.54381997808513        0.11722020082484        0.73249078257778
H          -15.65901345289477        1.36876504120904        0.17602825111472
H          -12.25304177144825        0.69377704874833        1.16478672976834
H           -9.82785314398247        0.57819534053328        1.14650034482430
H           -5.74193735501013       -0.27122918788665        1.90597695635573
H            0.54391694192811       -1.69384760048149        1.39151761337749
