39
 energy: -8.166325736945 gnorm: 0.000574404033 xtb: 6.5.0 (97a52f5)
C            2.45617661248881       -0.28071598116205        0.12336064221969
C            0.98367420599258       -0.07143909819308        0.07938857046634
C            0.42942210223956        1.01750320034213       -0.56271782577997
C           -0.93356261264889        1.13531687722398       -0.59525568450913
C           -1.73030154440561        0.16407245827826        0.00406165797582
C           -3.20356283248020        0.27860326427611       -0.03454101819747
C           -3.83056510802042        0.92927083460389       -1.09452293111639
C           -5.19285983237130        1.02443803125108       -1.13293521253376
C           -5.92922937890198        0.46110758499780       -0.09898961353490
C           -7.38078200641573        0.50696510803088       -0.03781745740231
C           -8.18354243401866        0.95492350916287       -1.01532139011795
C           -9.63589593140993        1.00365616812853       -0.95515180456533
C          -10.36357695826722        1.29502179046203       -2.11110141320819
C          -11.73715233124949        1.34784068448551       -2.08715328872432
C          -12.42475149510661        1.11590248534680       -0.91137990307171
N          -13.88812352751629        1.16759180716041       -0.88918693636496
O          -14.49165595072663        1.39801169575156       -1.94833259035631
O          -14.47308327703752        0.97847281055563        0.18836194780305
C          -11.72015419427374        0.83141610845119        0.24273770012045
C          -10.34617764295976        0.77541846901551        0.22572333347200
C           -5.20930531859828       -0.16643605277685        0.91226746325900
N           -3.89693099627084       -0.27417331229391        0.96819721048505
N           -1.20505317871358       -0.89417111451811        0.63095029875762
C            0.11336947079647       -0.98278090667849        0.64535526773504
H            2.98836750551615        0.67059586840340        0.10448955913902
H            2.78743265515450       -0.87011532702280       -0.73199498952052
H            2.75132208573679       -0.80764952049200        1.03105384236609
H            1.06326154400229        1.75517862124341       -1.02450871450880
H           -1.38802138548111        1.99049006943824       -1.06333240165157
H           -3.24135935033210        1.33424680019644       -1.89817355661648
H           -5.68144522437476        1.53125457732834       -1.94571465939648
H           -7.82811159284693        0.12648686481611        0.86164501048711
H           -7.73658545124796        1.29121653543180       -1.93251830810036
H           -9.83569725276801        1.47441766019461       -3.03192202708022
H          -12.29635669988183        1.56841532305428       -2.98034736513708
H          -12.26708606719894        0.65592525614119        1.15336409259030
H           -9.81647681964480        0.56607550627203        1.13752934977621
H           -5.75672927282846       -0.61374487829343        1.72665012957593
H            0.52685948606850       -1.84562977861465        1.14304301526488
