37
 energy: -7.674866037508 gnorm: 0.000880278879 xtb: 6.5.0 (97a52f5)
C            2.46541982317748       -0.26836078802249        0.12155432419692
C            0.99069682323842       -0.07163389382353        0.07539759487523
C            0.42985688238552        1.03538907596085       -0.52941657373353
C           -0.93434544310291        1.14374066463256       -0.56127813318791
C           -1.72517845327587        0.14512001576937        0.00113718831570
C           -3.20057584811905        0.25945171456061       -0.03422060362424
C           -3.82314545238493        0.93150462913602       -1.08356667532157
C           -5.18548596281547        1.03610720093659       -1.12097874643510
C           -5.92656212501979        0.45771910561207       -0.09885357056780
C           -7.38024769497891        0.50122993718998       -0.04353875228950
C           -8.17830486553763        0.97145717610140       -1.01281989173051
C           -9.63494228209897        1.00215585898160       -0.96127634373506
C          -10.35932081598351        1.26883002904460       -2.12443022472616
C          -11.73657861634531        1.29869219700794       -2.11022032103753
C          -12.42252996139696        1.06754067792291       -0.93498985973702
C          -11.72545324049323        0.80853337828174        0.22759926026808
C          -10.34784072479534        0.77650295817939        0.21775058544651
C           -5.21109999434344       -0.19132811708274        0.90133202607262
N           -3.89830410506997       -0.30667806339158        0.95944664062421
N           -1.19401915085561       -0.93428300781562        0.58792684656869
C            0.12640611985094       -1.01128502117959        0.60262194688294
H            2.99005960286682        0.68774442923488        0.12608961212615
H            2.80765241870876       -0.83579060571330       -0.74456725406920
H            2.76215898485466       -0.81184001919576        1.01939223555488
H            1.05978016612095        1.79425179824241       -0.96156332262825
H           -1.39565526944319        2.01168766909526       -0.99840474320289
H           -3.22993508701372        1.34781545402911       -1.87866348778454
H           -5.67099212055550        1.55875223120759       -1.92571536560276
H           -7.83263613440903        0.09738045283344        0.84347668097676
H           -7.72899590648901        1.33637069237251       -1.91798952316119
H           -9.82674713034084        1.44669444767413       -3.04303516104823
H          -12.27959858687860        1.50135290137118       -3.01894860919835
H          -13.50005820435150        1.08999049501334       -0.92510479182645
H          -12.26097008728122        0.63268636250782        1.14635441069818
H           -9.81654246110888        0.58867305504621        1.13345313899645
H           -5.76461571851692       -0.64932148195377        1.70541492245209
H            0.54908062179914       -1.88768360977042        1.06738454058762
