38
 energy: -7.741776181590 gnorm: 0.000527672951 xtb: 6.5.0 (97a52f5)
C            2.44980766070114       -0.22343901917220        0.12192019542593
C            0.97427288612868       -0.03229690219695        0.07726226061043
C            0.40800404087401        1.06306105803581       -0.54311836179714
C           -0.95679404818749        1.16414131723346       -0.57667877079681
C           -1.74284951189206        0.17050330195427        0.00053279204309
C           -3.21872049568229        0.27637834104226       -0.03778008349731
C           -3.84339891641637        0.94078278511844       -1.09132102451305
C           -5.20581045747033        1.03731856120711       -1.13187748781602
C           -5.94515829250832        0.45932416535235       -0.10780343170265
C           -7.39597350652499        0.49839011721892       -0.05273514431066
C           -8.19885807276222        0.98340817853851       -1.01277422093900
C           -9.64297579676445        1.00404409680663       -0.94979528128472
C          -10.47642228886529        1.10954312151533       -2.05522218084877
C          -11.79434627141716        1.09791328880325       -1.60787547841583
C          -11.77157574362587        0.99983072571812       -0.23830814188103
N          -10.46446372315686        0.94715405818438        0.17634027761163
C          -10.05641326200920        0.94201733763940        1.58132383799774
C           -5.22770139246357       -0.18378990344909        0.89575212442919
N           -3.91484921776400       -0.29122658609475        0.95612804145094
N           -1.20619838637325       -0.89639130484140        0.60444950326503
C            0.11412780781875       -0.96705130863616        0.62005722149221
H            2.97024839632779        0.73475954809737        0.12884186546082
H            2.79303463154960       -0.78682725516736       -0.74633856630217
H            2.74909120335857       -0.76902716887281        1.01749575816372
H            1.03415316717578        1.81830481889112       -0.98648335106812
H           -1.42188278547078        2.02308609345124       -1.02696618026085
H           -3.25144544013883        1.35552173221649       -1.88799835318829
H           -5.69331510202811        1.55304981118455       -1.93989524790156
H           -7.84924471842685        0.06238519330244        0.81720892409121
H           -7.75784886624554        1.34986527103883       -1.92162956799209
H          -10.15178626578640        1.17924399609280       -3.08052784636634
H          -12.67578914282556        1.16231369687562       -2.22616410524660
H          -12.62581622329849        0.97819847827837        0.41868056047946
H          -10.87431883517248        1.29231565116548        2.20774294808208
H           -9.20657031335263        1.60478063957991        1.73083854543829
H           -9.79271516380449       -0.06644013560861        1.89286087138860
H           -5.78002064553829       -0.64378054763537        1.69928737006625
H            0.54043309203864       -1.83522525286728        1.09642972863295
