65
 energy: -13.200138738543 gnorm: 0.000910722075 xtb: 6.5.0 (97a52f5)
C            2.15354425485902       -1.42445626739977       -1.46157354597735
C            0.77661074755061       -1.00416365456066       -1.07926137779501
C           -0.33163484526122       -1.53440232085425       -1.72526800418752
C           -1.60525256300727       -1.13158826257862       -1.38938649601827
C           -1.81167732342479       -0.17961484535162       -0.39244981466189
C           -3.18097517372500        0.25989980722045       -0.01872495331570
C           -3.58303217678888        1.55067862384356       -0.29508445787294
C           -4.87674308796977        1.96806401514360       -0.02647414523252
C           -5.78431718790651        1.14227719414905        0.59980938612026
C           -7.21095882535067        1.56246671099453        0.58723216301461
O           -7.51410533213269        2.72582218136909        0.81071654030569
N           -8.14271521148040        0.59120693736747        0.26539344123432
C           -9.59705746404566        0.85801468480516        0.16022634492229
C          -10.11828182038991        1.35584578121721        1.50942152256752
C           -9.83533634712826        1.91620696167943       -0.91952567804663
C          -10.31723573891350       -0.44200492956189       -0.21811248558404
C           -5.35858973334999       -0.14158853877111        1.07290542153283
C           -4.09719297793280       -0.62271000128301        0.63114683203472
C           -3.78638655294350       -1.98953645870248        0.81998268993866
C           -4.67813104904936       -2.84463695924272        1.37938938847287
C           -5.90094595506878       -2.38269778728473        1.92488928538312
C           -6.87263311590826       -3.30395736956823        2.50236690479088
C           -6.78493757682261       -4.68901797854527        2.29542647788885
C           -7.73243943889502       -5.54513626772366        2.79162334263968
C           -8.80953879449262       -5.04756134287570        3.50674108544687
C           -8.92384826612889       -3.69949729000426        3.72452076504425
C           -7.96554601413122       -2.79795673781901        3.23821283067145
C           -8.04200114702168       -1.36850581209685        3.51562939280570
C           -8.93870066382357       -0.84900047621476        4.46182939085910
C           -8.92197713938239        0.47621491684958        4.81040967647114
C           -7.99481176187050        1.33012716076789        4.23639516403075
C           -7.11649375523269        0.85304376919407        3.30146908989081
C           -7.13871954605158       -0.48611677810344        2.88322165780892
C           -6.16307170028077       -1.00081804419052        1.92313880081771
C           -0.69586095997639        0.36279593935318        0.24221779783617
C            0.57534421815580       -0.04321555914817       -0.09819935371051
H            2.17186810402219       -2.46660953400944       -1.78278078822351
H            2.84303042214218       -1.32536511374125       -0.62227579091506
H            2.53140084371998       -0.81237106936073       -2.28132426558556
H           -0.18497884585477       -2.26815232913668       -2.49947044037258
H           -2.45807371641199       -1.54501581942443       -1.90000212812687
H           -2.89290982325783        2.21655118757970       -0.78412126617842
H           -5.20664937866491        2.93929722419347       -0.35410260934478
H           -7.85195502341883       -0.36469352501265        0.06271018913475
H           -9.58540617890251        2.25519883731914        1.81266679335675
H           -9.96582106647611        0.60022630157563        2.27751186614290
H          -11.18226982099622        1.58491997893889        1.46221486524631
H           -9.31721926750629        2.83919996396151       -0.66576098903081
H          -10.89679115885349        2.13719689230310       -1.02650838110788
H           -9.45722634711902        1.57416002431581       -1.88126085196136
H          -10.14260023284256       -1.20984432638843        0.53379908151662
H           -9.95701976317346       -0.81878821032502       -1.17374980718381
H          -11.39195301606154       -0.28409196956336       -0.29887040536732
H           -2.83986864566152       -2.35846661441699        0.46722418538443
H           -4.41902094554587       -3.88410165119853        1.46942458175530
H           -5.97579930515297       -5.08976552864998        1.71222204529474
H           -7.64742691497088       -6.60555343699589        2.61748100396056
H           -9.55831689398831       -5.72236454062205        3.88874241470838
H           -9.77534038215666       -3.33185505519480        4.26763964630939
H           -9.63485572627881       -1.50418162394806        4.95283203124162
H           -9.61620074642726        0.85202998146661        5.54435809914395
H           -7.96541816051043        2.36781402837571        4.52636447152639
H           -6.38023290572202        1.51681532239957        2.88488088423222
H           -0.84267312102181        1.10371116063230        1.00921421091548
H            1.42902804243387        0.38538844291849        0.39867627341638
