25
 energy: -4.994054718489 gnorm: 0.000272748060 xtb: 6.5.0 (97a52f5)
C            2.48401095203764        0.03312499591561        0.07175275117753
C            0.99552819550429        0.00202279160321        0.01254368108281
C            0.29767344790142       -1.19366708280954        0.11416778620974
C           -1.07980345649769       -1.21294192182235        0.06994658908487
C           -1.80601052734495       -0.03375993356226       -0.07748828946356
C           -3.28850014721273       -0.05413026440870       -0.11779660077841
C           -4.01653767979943       -0.80057993183312        0.80702444046484
C           -5.39430829017591       -0.82105489623550        0.76878796343790
C           -6.07142542668845       -0.09867240008794       -0.19339081542471
C           -5.36653490635399        0.64629358147767       -1.11778388676902
C           -3.98863716153982        0.67018255326848       -1.08092207974905
C           -1.10243381180745        1.16374204564517       -0.17979140785486
C            0.27512448332713        1.17868811075606       -0.13347451643645
H            2.90307814681376       -0.97371079727610        0.09692382025298
H            2.82568230458708        0.55896299626395        0.96445432293370
H            2.89750148479439        0.54362714753292       -0.79921902233640
H            0.84508762005459       -2.11373673476013        0.22904697538180
H           -1.60941248792888       -2.14745518114979        0.14149358728570
H           -3.48769338976433       -1.35671207341196        1.56203217537059
H           -5.94365760860014       -1.40100789456991        1.49257839842151
H           -7.14885585272205       -0.11641376797556       -0.22327918247673
H           -5.89474485403316        1.20841493888209       -1.87077752935130
H           -3.43805814886823        1.24401229819636       -1.80658018741399
H           -1.64975166357185        2.08476824502709       -0.28488934704826
H            0.80769877788849        2.11165317533386       -0.20810962600150
