33
 energy: -7.112571485450 gnorm: 0.000989229979 xtb: 6.5.0 (97a52f5)
C            2.44706863343002        0.00384821625615       -0.03507802717463
C            0.95780517953833       -0.00664458842619       -0.03452080601718
C            0.24983332241993       -1.14532172122949        0.32392867085947
C           -1.12723258743276       -1.14391653538695        0.34641366849079
C           -1.84820998066277        0.00229220225071        0.01429404554232
C           -3.32513149353126        0.01029990101115        0.05153045914537
C           -4.07211888287562        0.75799332048917       -0.89704508154783
N           -5.36939861911933        0.87204362103504       -0.96896453763563
C           -6.05669239392211        0.18274336080319       -0.01519218157218
N           -7.38612140918787        0.14331410115786        0.14331916033062
N           -7.60816894397241       -0.64238451679073        1.20286761040665
C           -8.82375316110295       -0.98347314941464        1.79221867892932
C           -8.85166583001160       -1.78782959728522        2.88272415710865
C           -7.66014351843493       -2.29287767840560        3.44058885154733
C           -6.45267962752577       -1.97691744838340        2.89217046653369
C           -6.43479507344611       -1.14456723506346        1.76907615099046
C           -5.40578741308016       -0.60709580063868        0.97535476259642
C           -4.01672130274614       -0.69386590535205        1.00870066010948
C           -1.13135799725758        1.14529437558291       -0.33816432878527
C            0.24557536103826        1.13884766588939       -0.35892250091660
H            2.85082249164062       -1.00893827127423       -0.05337837804648
H            2.83032726371905        0.50190374049161        0.85615224842923
H            2.83344633327165        0.53005512276913       -0.90864163610295
H            0.79114232741659       -2.03724512697390        0.58934092542894
H           -1.66078059771406       -2.03976387820477        0.61242946462649
H           -3.51629096152743        1.28498713566656       -1.65539536980241
H           -9.72375591212470       -0.58912913362612        1.35825182329559
H           -9.79582878324461       -2.04658484501287        3.33275310308419
H           -7.70799506036774       -2.93193308954695        4.30683702129546
H           -5.53030477865271       -2.34847701830295        3.30214206819190
H           -3.51568746118028       -1.26692901425478        1.76629816382658
H           -1.66649417129223        2.04819338954267       -0.57542387930847
H            0.78498504794006        2.03191840062801       -0.62468543386058
