32
 energy: -6.961034198773 gnorm: 0.000795627324 xtb: 6.5.0 (97a52f5)
C            2.35521260048508       -0.14320393506236       -0.00361552731914
C            0.86798292744613       -0.07077309525581        0.00128361691240
C            0.11167058127117       -1.06392963072651        0.60649337412217
C           -1.26241938181986       -0.98689535104676        0.62902835545160
C           -1.93270228552412        0.08610581259911        0.04723976446323
C           -3.40481648193978        0.12768727670157        0.08965735266477
C           -4.11665803887231        0.93636294423067       -0.83812720715752
N           -5.40533444280021        1.06995485763863       -0.92300600896209
C           -6.05286118644642        0.32495242032860        0.00242788727255
N           -7.37566010346203        0.23882921077196        0.19323752508739
N           -7.54715172676801       -0.61447670810428        1.20614511584577
C           -8.73486328046312       -1.05196059835161        1.78820450851998
C           -8.70619924894589       -1.93654601629209        2.81428232480200
C           -7.48342842854048       -2.43109621722567        3.31191517232886
C           -6.30305153606716       -2.02572003503965        2.76633980828151
C           -6.34533786317148       -1.11333306845687        1.70785972713571
C           -5.34938027414568       -0.50297732528017        0.92670400954418
N           -4.01698787741118       -0.62019250719919        0.99219125324001
C           -1.16665351535053        1.09339061472163       -0.54055285405784
C            0.20777665196495        1.01328220790816       -0.55982424489136
H            2.69770851674276       -1.17765002669474       -0.04177171377472
H            2.76740716822489        0.31606919679692        0.89518758888459
H            2.77152836025283        0.37437160648241       -0.86837664870380
H            0.61207876980778       -1.90040395919726        1.06336602127603
H           -1.84190069062973       -1.76251662184945        1.09811952476886
H           -3.54582410806135        1.48141762612703       -1.57177308352387
H           -9.65951895877568       -0.66782036260454        1.39895825165420
H           -9.62931472469367       -2.26974524078788        3.25880241782032
H           -7.48624320938431       -3.13448373275616        4.12808870292527
H           -5.35629143073553       -2.38803566693507        3.12559657857534
H           -1.65089913414670        1.95721903414700       -0.95939996797951
H            0.78602235195930        1.80169729041458       -1.01038162520633
