48
 energy: -9.955144454454 gnorm: 0.000697030680 xtb: 6.5.0 (97a52f5)
C            2.46648274963700       -0.27296017112824       -0.18084826649766
C            0.97878210919788       -0.21674612598922       -0.15908107466253
C            0.24006628831611       -1.22537446591673        0.44269287432648
C           -1.13394954155943       -1.16175852750268        0.48959730116064
C           -1.81556714168268       -0.07579046094847       -0.05383623953384
C           -3.28280482204578        0.00882959782595       -0.02954206111092
N           -4.00588063747878        0.58330519551719       -1.01147176526678
C           -5.28490301614804        0.42019066695839       -0.69616657481873
C           -6.41775155087581        0.89455218762012       -1.48616280582347
C           -7.63648913778500        1.12838322457473       -0.86731724475473
C           -8.72529975417996        1.59207591491508       -1.57413096608222
N           -9.98727124760898        1.83935457074172       -0.88054770823588
O          -10.04450308726802        1.62017502468083        0.34088986182182
O          -10.95607218140927        2.25944737921023       -1.53439841248385
C           -8.60942780727937        1.82598182950220       -2.93303316143477
C           -7.42012330313854        1.59731302200309       -3.57771650808338
C           -6.30103704293266        1.12676292155031       -2.88157434032815
O           -5.11856845450198        0.87717262944989       -3.53819752908135
N           -5.41453104226875       -0.24897349709651        0.50622987992254
C           -4.15337294514460       -0.51545786236958        0.95169951371516
C           -3.82543075278950       -1.16660577677673        2.22434756788967
C           -2.79050997647960       -0.69919996299122        3.03263384882696
C           -2.48887793329147       -1.32392545244185        4.22113078588102
C           -3.21527384014565       -2.42613568551235        4.64952439830046
C           -2.86460209663684       -3.12695052123207        5.91542106415384
C           -4.25131941772002       -2.88886727534166        3.85046880220534
C           -4.55787870103489       -2.26724803573684        2.66110319143275
C           -1.07264477366639        0.92966650341622       -0.66385924909254
C            0.30177342126215        0.86307605445621       -0.70780501353297
H            2.82018860591708       -1.30340503965623       -0.22554307856000
H            2.88302151314309        0.18811852692723        0.71509473706832
H            2.86712057672527        0.25159986819681       -1.04871291726172
H            0.75505511352250       -2.06505981780405        0.87675976838817
H           -1.69571234128570       -1.95943194638138        0.94261380016224
H           -7.74247412099300        0.96384333444208        0.18933524809169
H           -9.46762517234308        2.18913536678299       -3.47220585016057
H           -7.34071834235977        1.77496894356844       -4.63513189592035
H           -5.20528364416539        1.08458087475264       -4.48914476436005
H           -6.28137898396673       -0.50073880964587        0.97968638634430
H           -2.22738699780881        0.16080710684894        2.71437662495568
H           -1.67875192596809       -0.96016876341459        4.82959268584744
H           -2.34413148708200       -2.46141494701827        6.60454770680818
H           -2.21532384175860       -3.97994273944673        5.71617108620532
H           -3.75870125582176       -3.49320139737193        6.42065766140459
H           -4.81500732156427       -3.74852753195572        4.16996644029099
H           -5.35943951498268       -2.63703855846945        2.04595057986099
H           -1.59223509700034        1.76497089808748       -1.09962960978375
H            0.86469987445172        1.65472173012403       -1.17168477819090
