78
 energy: -16.254794420536 gnorm: 0.000405781606 xtb: 6.5.0 (97a52f5)
C            2.36118283584210       -0.14305077034301       -0.27145233641647
C            0.87240171804353       -0.12777870553481       -0.23058457896178
C            0.16874342884183       -1.16394708154629        0.36748228352781
C           -1.20674531787469       -1.14209862758679        0.42325811758154
C           -1.92577179814472       -0.07172305694182       -0.10471098476507
C           -3.39638025321843       -0.04863037204890       -0.08777637749517
N           -4.13952421921363        0.50632677849997       -1.06736936660890
C           -5.40974575701019        0.24018651223736       -0.77314938382349
C           -6.55210585759001        0.66873689781646       -1.57643525568064
C           -7.75754192440423       -0.03283121073032       -1.54241376816279
C           -8.82513383990857        0.37302491005255       -2.30474540525134
C           -8.73654461849843        1.50708515962613       -3.11178607695737
C           -9.88609814169744        1.93887556924794       -3.90144515112485
N          -10.89033068992894        1.14261238799153       -4.25951104568909
C          -11.75871316144933        1.90962274506298       -4.94996476154688
C          -12.96441571513363        1.37722758747298       -5.60281579862967
C          -13.62905082694721        0.28330215842041       -5.05697363559112
C          -14.73668879094571       -0.25091759962095       -5.67762739223968
C          -15.21601556557683        0.28754990998923       -6.86418555336672
C          -16.39366421106499       -0.30870149746011       -7.55406368596440
C          -14.54389898299029        1.36644873947657       -7.42131520144341
C          -13.43631934829260        1.90285935075608       -6.80386056637967
C          -11.29013053496906        3.24574874617487       -4.98735796940410
C          -11.96938509564190        4.44868604488911       -5.47946989080389
C          -13.34785821305795        4.60685203108961       -5.34316072339848
C          -13.97242581231727        5.75489758175171       -5.77555625645739
C          -13.24321416877446        6.78909350032392       -6.34577868588316
C          -13.92532966692073        8.02052646227747       -6.83229533616481
C          -11.87016155229705        6.63526516477404       -6.48321884522305
C          -11.24068590688680        5.48845475771177       -6.05173724634628
N          -10.08731884413758        3.23413261661341       -4.34484213618327
C           -7.53202863332191        2.21044594323895       -3.14366129519724
C           -6.45709522650378        1.79179440906028       -2.39824479023080
N           -5.51437683139515       -0.47898434942685        0.40411181525523
C           -4.24602429497343       -0.64630531139518        0.87547032768437
C           -3.90472366890118       -1.22823436270982        2.17738020063297
C           -2.87227789337394       -0.70649762535021        2.95567763406830
C           -2.58250255842859       -1.23846136637680        4.19190613407612
C           -3.32122563966134       -2.29790951054704        4.70062778933806
C           -2.99551135481237       -2.88644712682241        6.02953773878049
C           -4.35128993372522       -2.81883705100517        3.92936448151925
C           -4.64423073699921       -2.29053728555886        2.69145413281484
C           -1.21728472445926        0.96361152359607       -0.70683962549700
C            0.15893235502782        0.93816599930718       -0.76146966451679
H            2.74467936128597       -1.16417912307449       -0.27935990544706
H            2.77756045465779        0.36599675375189        0.59863951086005
H            2.73533183748633        0.35692009754972       -1.16575518055460
H            0.71196754687172       -1.99275024511588        0.78845623882484
H           -1.74145992369725       -1.96227146774681        0.86962367238617
H           -7.83655380000776       -0.90879315922135       -0.92288945522945
H           -9.75074110205547       -0.17523303929985       -2.28240519100760
H          -13.25927809328952       -0.14310564944011       -4.14073770119755
H          -15.23868146289211       -1.10027393275866       -5.24665849521461
H          -17.03329731066847       -0.84539350047913       -6.85234013922330
H          -16.07523686609339       -1.01210765562797       -8.32449164296702
H          -16.99994840088882        0.46199640433751       -8.03175818255379
H          -14.89606377049367        1.77954031362850       -8.35116715787885
H          -12.91501431312617        2.72969490194936       -7.25384336281292
H          -13.92098467377429        3.81905131125258       -4.88573927641094
H          -15.03889920217471        5.86025550258966       -5.67165057465204
H          -14.81088637231134        8.24156492571950       -6.23493176199718
H          -14.23994517520507        7.90458322081781       -7.87015033289114
H          -13.26410737577035        8.88610646242179       -6.77507386374817
H          -11.29698250187266        7.42810372583831       -6.93273427075032
H          -10.17526657477802        5.38109231455872       -6.15877156687216
H           -9.51198103449476        4.04776537176539       -4.12896634287486
H           -7.44843253615963        3.07900258952280       -3.77280127705764
H           -5.52768068886982        2.33300597279060       -2.43029712834167
H           -6.37678532201009       -0.73258822212684        0.88541332557194
H           -2.30525714029106        0.12754769370435        2.57994532321658
H           -1.77638285611167       -0.83126064236259        4.77802653656489
H           -2.49033269238475       -2.16168789679049        6.66933962646740
H           -2.34095398852542       -3.75196736560646        5.91981911870527
H           -3.89923193419389       -3.21051079984126        6.54728993408572
H           -4.92474626511205       -3.64577552597862        4.31218273076625
H           -5.44751309125334       -2.69946668618261        2.10361597026593
H           -1.76422677880687        1.78700619614228       -1.13215652130289
H            0.69551202072535        1.74991057687500       -1.22225452060080
