46
 energy: -7.693016349119 gnorm: 0.002304915873 xtb: 6.5.0 (97a52f5)
C            2.53815645209641       -0.72166611434852       -0.33221576842417
C            2.63786535985131       -0.39111089211036        1.07380006130248
C            1.58080473629908       -0.02654511304703        1.84305131449056
C            0.28111983876319        0.12619629835399        1.65770843898367
C           -0.59942737246988       -0.02408697498361        0.62246728157319
C           -2.02775655543676        0.25528574623620        0.84892366595551
N           -2.97405211647071        0.14995755089503       -0.10555193724621
C           -4.11588546026392        0.48568087433810        0.48392521113331
C           -5.40645553452622        0.51254377840313       -0.20800606606293
C           -5.44524266113387        0.25147317813213       -1.55151708251234
C           -6.57051977390634        0.26913819717802       -2.22986176678113
C           -7.78066058724817        0.53861436615982       -1.64035223784346
O           -8.98105801489445        0.55798360133290       -2.36731769255055
C           -9.96038066782738        0.57377277713257       -2.95672480155493
C           -7.75029409023566        0.79981176818845       -0.25248862405429
N           -6.58804084825683        0.79205676138116        0.44591564939401
C           -3.94425678962202        0.79244863582015        1.80233582050065
C           -2.62482683005209        0.67304080752116        2.06363317831375
C           -1.98636031445504        0.94130973654131        3.30135926810118
C           -1.96835687245690        0.30295194692891        4.49797394931564
C           -2.48555638364463       -0.93223469398954        4.85287977325331
C           -3.08076454079668       -1.87027466170813        4.08764603058594
C           -3.32973053661930       -1.95684217085313        2.70988794975761
C           -9.25750364442013       -5.97478683124528       -0.99702826152329
C            0.37192981799876        5.17227585352288        3.67238788410291
C           -0.22806496616951       -0.42453606030571       -0.57626470755269
H            3.60006647673229       -0.41021430769996        1.51169774397207
H            2.42008743435855        0.14840330365192       -0.94588141122332
H            3.37799450284771       -1.29082479087915       -0.67724548837029
H           -0.62159609372568       -4.40373846437694        0.34154141197063
H           -3.61107204072087       -5.32010483665923       -2.98983500966917
H           -6.81775668718590       -3.19136770092832       -5.27435114715928
H           -9.38982145694240       -0.26586450678801       -7.48568772589093
H          -11.40713189618070        0.65700764148109       -3.78013034110004
H           -8.68402437235306        1.01134030635094        0.24265853604697
H           -6.58549788849225        0.98134530823021        1.45443101055912
H           -4.58076741914659        1.16180823265166        2.39614378777879
H           -1.47169411769860        0.85168658345170        5.28403002940079
H           -2.38746308081362       -1.20275015251272        5.89359994675098
H           -0.85538697204346       -2.82549103392723       10.12030121701732
H           -3.73882743455798       -2.90633041844272        2.42594430196549
H           -3.96675565634296       -1.16833513159100        2.36211192497106
H           -9.28096149729945       -6.96514140346755       -0.74541843034351
H           -6.04169918629251       -2.70615878857902       -0.60527712997864
H           -4.19168134213453        4.47622353227903       -1.85629973388416
H            0.31962708450975        4.08855825574866       -0.73199002781107
