46
 energy: -9.259988461696 gnorm: 0.000663501448 xtb: 6.5.0 (97a52f5)
C            2.59706577636829       -0.25641084809338       -0.20447392201074
C            1.10931159704637       -0.24118080327090       -0.13805279449704
C            0.41592156994149       -1.28049111076397        0.46603733542670
C           -0.95783805798616       -1.25627514186755        0.55218795755108
C           -1.68459474090055       -0.18026680773307        0.04818637149392
C           -3.15250336233535       -0.13668260672658        0.11220683065294
N           -3.91443098795777        0.45802714405537       -0.82691676073142
C           -5.18141868625108        0.25460355547552       -0.47686174151139
C           -6.32577832668893        0.74674012724242       -1.24110050715760
C           -6.05784016768864        1.47771092586495       -2.40201046973719
C           -6.92427033836127        2.05915685547505       -3.30909038397973
C           -8.27585535713648        2.07637624660566       -3.31237943069843
C           -9.33277668492484        1.62655356767607       -2.58903995681350
C          -10.25498572562089        1.24080128657536       -1.97499657251905
N          -16.28175824744046        7.44856353745864       -0.74585755898796
C           -7.57417557948251        0.48343015259734       -0.80942067873863
N           -5.26224192648451       -0.47101536728280        0.69768065461543
C           -3.98349191995889       -0.71578894157411        1.09968887106887
C           -3.60871701039024       -1.38395292388348        2.35101535944580
C           -2.57297984614615       -0.90166140481279        3.14926564616840
C           -2.23829851399505       -1.53330033127456        4.32566666588958
C           -2.93237373313065       -2.65727041402721        4.75181597213490
C           -2.55485142935235       -3.35674132878653        6.01125972112774
C           -3.96651593100315       -3.13762246428812        3.96067007585929
C           -4.30551974868391       -2.50919662969894        2.78336973244890
C           -0.98683406557274        0.85699957296038       -0.56230679601561
C            0.38735206545306        0.82949267992712       -0.64655538542924
H            2.97746439058847       -1.27645319786979       -0.26788293646378
H            3.02789778238665        0.20994605296639        0.68211914733126
H            2.95747645463645        0.28527290500891       -1.07961524265562
H            0.96603883220843       -2.11293393049759        0.87025824080263
H           -1.48431079647207       -2.07804784839252        1.00492696676713
H           -5.00643918097716        1.60019527317966       -2.60697879532836
H           -6.46829578876270        2.57835669252352       -4.13858480515896
H          -11.89900500262203        2.43624858476355       -6.11806536047858
H           -7.80137352698363       -0.06030141411746        0.05780945642557
H           -6.10419881222490       -0.71744714994763        1.21710331446124
H           -2.03742273519549       -0.02259357993972        2.83495480159161
H           -1.42941770446319       -1.15619946677174        4.92766037053467
H           -2.03486905157803       -2.68540862219214        6.69540387340611
H           -1.89649641473996       -4.20050111911457        5.80195759577355
H           -3.43695486229556       -3.73656333902986        6.52790631946124
H           -4.50430735764812       -4.01469033161683        4.27775640634408
H           -5.10736231505367       -2.89087805883014        2.17556053707647
H           -1.54152134729315        1.68570341029531       -0.96686191865499
H            0.91509684087503        1.64528659225711       -1.11013617962587
