46
 energy: -6.331845650528 gnorm: 0.001953406204 xtb: 6.5.0 (97a52f5)
C            2.07181679419930        0.40879795598985       -0.32390408995484
C            1.15879356003769       -0.57832021968859        0.21613573551642
C           -0.17370738997370       -0.59875614220450       -0.04069474882494
C           -1.01646772196863        0.15192359619005       -0.72857893796739
C           -0.94161534273076        1.30812057801352       -1.45829357056641
C           -2.14003975224020        1.78843687943619       -2.05862601783108
N           -2.26801031680586        2.82261492335215       -2.83426215765150
C           -3.48621037000060        3.03923425161967       -3.19005162235625
C           -4.69934258877579        2.29694297482388       -3.00074933384178
C           -5.83854710569514        3.04537776819482       -2.80760590880660
C           -7.11498831131632        2.75668486396398       -2.64323056091806
C           -7.79812932974215        1.62634893745952       -2.70817601915152
C           -7.49081565752684        0.34392712879123       -3.02792149300395
C           -7.20825113889644       -0.75938912807640       -3.30633498066507
O           -0.59526090637205       -4.25595108730199       -0.80448416326496
N           -4.69193406543734        0.99158047760807       -3.02925541020211
C           -5.74029580018656       -1.91879507994086        3.37418371443177
C           -4.69791457374163       -1.89314367895415        4.11214895467571
C           -3.58268713312957       -1.13489733326989        3.88945269469109
C           -2.38578968795443       -1.06388601144514        4.52288751354982
C           -1.89897672556183       -1.82359005577755        5.57445769513530
C           -2.45342920932596       -2.89054184027064        6.18639955617005
C           -3.61190036514217       -3.63825526602750        5.92155988978978
C           -6.42204541945173       -6.90880633814029       -0.92100582851636
C           -4.13473414365181        2.99565507219095        0.82195568263765
C            0.17232520531294        1.99735788026745       -1.60980248103543
H            1.57585081503609       -1.35996473714058        0.79317321166959
H            2.97893906614757        0.47905211183900        0.24207799676454
H            2.30317186090661        0.22515118929383       -1.35395735667262
H            1.10732156612811       -6.76540052638849       -0.26980540518863
H           -2.75310275757210       -4.54852599024830        1.08898274921573
H           -8.06361500575264        2.22225714798881        3.33955266247007
H          -13.18598062838537        4.98431187668072        0.85284479814088
H          -14.24101855910198        3.37205744748273       -6.04951063077060
H           -7.15531388555405       -1.41446876805060       -5.00425407313059
H           -7.00376858232247       -2.13408606195845       -2.14365678661779
H           -6.45018826256865       -2.43922933577772        3.58929111590857
H           -1.73105829430231       -0.28841995558799        4.15457575794379
H           -0.93443620827562       -1.53296309940595        5.96279886479287
H            1.42981611732435       -3.02743825100412       11.60639089181601
H           -3.53070706572736       -4.20484921909714        5.01482592454387
H           -3.86954294097427       -4.29164721995546        6.73185078035525
H           -7.15194633677356       -7.47001197788965       -0.47393976043241
H           -5.55473085722915       -0.98471344440579        2.14120265061431
H           -1.53823464191260        5.12185853596366       -2.76621064227606
H            1.95530208098046        5.56124917790801        0.58225311040478
