50
 energy: -5.454554338926 gnorm: 0.002185708894 xtb: 6.5.0 (97a52f5)
C            2.22840146584302        0.17487593889080       -0.21004796036688
C            0.88813094198314        0.20701785892269       -0.52203430447799
C           -0.03897996072035       -0.62562664546081       -0.08937314509252
C           -1.32493448170385       -0.60812295741804       -0.37749373410291
C           -1.95256132058752        0.24745009586009       -1.16825960802038
C           -3.30113525370569        0.25169119825569       -1.44208577065396
N           -3.92138692835222        1.05845281977078       -2.22718073793844
C           -5.19666524777715        0.78939328029450       -2.23789850205009
C           -6.16419244132564        1.43520902157783       -2.95869066711084
C           -5.97181085184282        2.40213562297717       -3.78739874513503
C           -6.93475775733937        3.07128848920462       -4.49793829233910
C           -6.73338708036684        4.08812510834022       -5.32644702105279
C           -7.62771042353362        4.76804264063251       -6.00854038074668
C           -8.94350708465572        4.61585492689863       -6.02971770575221
C           -9.63863423142008        3.73528555142971       -5.24868625285797
C           -8.87870251566952       -3.27435859774061       -2.45253481777285
C           -5.94166052819075        0.10163054602888        2.68920405644367
C           -9.43144920380965       -2.92250524178173        2.52245315682994
C           -9.20346707459951       -1.63203886271221        2.21453029767902
C          -10.15094215778559       -0.77571758218111        1.76941137295146
C          -11.50938233554447       -1.10181367283755        1.57908976681468
C          -12.43307647903747       -1.71852706051001        2.36773918469939
C          -12.37435945974939       -1.90355867428011        3.73388641041198
C          -11.45247903110235       -1.37088601305482        4.57787223021340
C          -10.90953283105779       -0.12299591820074        4.46083829536102
N           -4.31273083662765       -4.22846760658789        1.11573557943893
C           -1.29284479664556        2.36688535436072        2.42313233833106
C            3.63055359185175        2.51283457276136       -1.34836969338907
H            5.17272516227776       -3.28590774931909        1.30153533322993
H            4.56122768121942        1.14686763473846        5.81576666470866
H            2.76205793384728        0.97879112518948       -0.63221491967105
H            1.38883592587695       -5.38462157814692        1.13944606182106
H           -2.27736105234368       -4.54510010991043       -3.05727934898468
H           -8.99520090116918        4.08734803595270       -0.47943913036352
H           -4.65967920753247        0.44132359575883       -8.27159224234892
H           -3.08094788816535        6.26170126675233       -7.18159986627066
H           -7.97665509772111        7.01959473716594      -10.49450917783571
H          -14.86128627054414        4.64243669939238       -6.62044142260270
H          -12.62390139166807        0.75380048478556       -2.64827083470409
H           -9.83022455125706       -3.52766367879862       -2.17550265138833
H           -5.00568875949950       -0.16945915454065        2.99744515308086
H           -8.19072801703135       -1.27571836250112        2.31808070122123
H           -9.85227494716047        0.22551493447249        1.50078637418624
H          -13.30869566287483       -2.08966005976354        1.85641509936140
H          -13.14757172128414       -2.50263662589067        4.19025703049899
H           -9.68108402647879       -4.75564223057537        7.71836566969599
H           -8.60160138286233       -0.82679232915772        5.12410261527860
H           -1.25368217570459       -1.94729261561396        4.00783538036750
H           -1.64593714286227        3.25804037547283       -1.35781200267854
H            3.09319775467954        4.31279147065746       -1.38093983198286
