42
 energy: -8.402405322746 gnorm: 0.000909174374 xtb: 6.5.0 (97a52f5)
C            2.27949166878565       -0.18820251585939        0.27722375303670
C            0.79712135573692       -0.14296570226157        0.14409121000393
C           -0.00194421286188       -1.03353518635109        0.84682249778709
C           -1.37351478170168       -0.97962267709600        0.74452639166557
C           -1.99200077559456       -0.02922111053154       -0.06169814749745
C           -3.44822007397238        0.00884928486841       -0.15787463040478
N           -4.25293106905319       -0.78830487713104        0.54634604397987
C           -5.50654643360475       -0.46345602243712        0.18393727107456
C           -5.47840744470866        0.55334766389488       -0.78995414545337
N           -4.16611994881800        0.85686581129091       -0.98794736441155
C           -6.69196330041100        1.04692524421309       -1.39595331096295
C           -6.82301508623631        2.18719401719445       -2.11142492056629
C           -8.18424951382944        2.53373995327877       -2.45448469193868
O           -8.51541693155665        3.45135547987186       -3.17682204258505
S           -9.29598670673708        1.42537482569487       -1.62813065183315
C           -7.98278592228576        0.26641541311556       -1.19468212980399
C           -8.04251565298556       -0.90524990482033       -2.17452882624803
C           -8.05648093873373       -0.24531402389487        0.30681800159830
C           -8.25831658058344        0.92209479456980        1.27266918254976
S           -9.37430867753308       -1.44323137194865        0.59644456847403
C           -8.32662662130526       -2.52256283985250        1.53695947039344
O           -8.70789831452750       -3.45360994488464        2.21597720438639
C           -6.94743427336550       -2.13350527009304        1.34612480150535
C           -6.77369101964402       -0.98817988632150        0.65016180769359
C           -1.18917110739150        0.86994204857580       -0.75753301651420
C            0.18252672860764        0.81385596174244       -0.65191986120378
H            2.63317282997883       -1.21582848109594        0.36531119863352
H            2.60392267263169        0.35825972703542        1.16315574795257
H            2.76736318402251        0.25569825269124       -0.59091127176044
H            0.46292257092399       -1.77119176298909        1.47831245387696
H           -1.98774355652265       -1.67456371190738        1.29004000187559
H           -3.80339840141033        1.52728642442336       -1.66439691787804
H           -5.99650331578561        2.83025619485623       -2.35189136068953
H           -7.95102395824643       -0.55171467297692       -3.20155018701002
H           -8.99038654193751       -1.43514696340560       -2.08293815920677
H           -7.23495475061925       -1.61243737813235       -1.98515650641588
H           -9.20798714054730        1.42103357067301        1.08035261210806
H           -7.45880555122238        1.65575495202438        1.16873756800764
H           -8.26474245754615        0.57009173425855        2.30438031258325
H           -6.13065464519765       -2.74842082921422        1.67700075339601
H           -1.64783965892819        1.61932427027115       -1.37727174042334
H            0.79195435471682        1.52001950865888       -1.18943296977496
