110
 energy: -20.493619865116 gnorm: 0.000749788001 xtb: 6.5.0 (97a52f5)
C            1.03492392833396       -0.05922452078863        0.03122900917729
C            2.57677449948359       -0.11311451379478        0.03552307587036
C            3.09869766837230        0.14853164734535       -1.39227287350782
C            3.12200811960029        0.97326685842090        0.98515534013079
C            3.01124690607649       -1.40882031495592        0.48041184969884
C            3.35498592565274       -2.51682077486875        0.85258852677418
C            3.72120395085285       -3.81632303192922        1.27964221968012
C            3.09738199181510       -4.92973184280862        0.73495362350423
C            3.41970519839637       -6.22505539323780        1.13892567397370
C            2.76085608339130       -7.38051282382692        0.57127571948204
C            1.77643002547512       -7.18816962517503       -0.42406218568136
C            0.93666949988411       -6.98654328777799       -1.28374204088208
C           -0.04243965872327       -6.71456174564594       -2.29920328582573
C            0.06432446722865       -7.76644745607127       -3.42159409244609
C           -1.45566167985543       -6.76649882377412       -1.68387751014444
C            0.20554164027008       -5.31117443962888       -2.88984676660488
C            3.08991240447616       -8.64568978903683        0.99851891069763
C            2.44140731723763       -9.77955029480557        0.45976472189374
C            1.88974664762881      -10.77668476649180        0.02810732802057
C            1.24884245420641      -11.96730581107483       -0.45686385428501
C            0.44868436489670      -11.64349250657573       -1.73456772381247
C            2.31509765430947      -13.03485405834984       -0.77747401437842
C            0.28986520727731      -12.51341043453727        0.62075390781059
C            4.10260315354484       -8.83165089240376        2.01388962613950
C            4.45928522798846      -10.10248537016157        2.46475388093630
C            5.42874438077361      -10.28708238031662        3.44031260283570
C            5.76447559864772      -11.59173024444391        3.87626795956892
C            6.04468797523056      -12.71819868027337        4.24624106953306
C            6.36602975562562      -14.04744629645626        4.68820566112791
C            5.06737551007807      -14.85861351451998        4.87632157923583
C            7.25388355201006      -14.74488782322440        3.63714568372901
C            7.12346175131950      -13.97899049316361        6.03032189172767
C            6.05947469693299       -9.17523481925931        3.98048394586300
C            5.74560784337033       -7.87982709589291        3.56872119229606
C            6.40786819351896       -6.72408250178726        4.13165682945752
C            7.39853479988595       -6.91386004041556        5.12130339063366
C            8.25116953059979       -7.09861327148696        5.97206182144991
C            9.25633353687496       -7.34446244624626        6.96850079183139
C            9.25693550639251       -8.84140660145964        7.34115635660510
C           10.64141115583027       -6.95575521878930        6.41265297243492
C            8.95844131052292       -6.50576486509962        8.22782688608352
C            6.07849521452106       -5.45843317752891        3.70505024891288
C            6.73392675477674       -4.32904081770767        4.24492044898672
C            7.30334163879704       -3.34818920080105        4.69060540544337
C            7.97542904127068       -2.18451764866183        5.19848101414674
C            7.09999587081210       -0.93689258530196        4.96124201939114
C            8.23112726452650       -2.34979854906613        6.71012632614616
C            9.32396175628406       -2.00748540067244        4.47118016617687
C            5.06213600608675       -5.27092848485571        2.69334959020479
C            4.69702136832826       -3.99955008337332        2.24948041403204
C            4.41242772657627       -6.39811338327085        2.13365138451465
C            4.75468839464339       -7.70549026410468        2.57234441061046
H            0.67772816035558        0.91423794392418       -0.30423795409841
H            0.63852171015864       -0.23934507781949        1.03035432377310
H            0.62319152377198       -0.81811277435291       -0.63388210726677
H            2.77622819123484        1.12464754204617       -1.75423710225651
H            2.72854748372955       -0.60791295398464       -2.08415905805830
H            4.18791411161393        0.12124567575039       -1.41730944635996
H            2.80247628442176        1.96604815911517        0.66877746489385
H            4.21159695684644        0.95870718997672        1.00491308571716
H            2.76639083855337        0.81168668140957        2.00264020240761
H            2.34196866305791       -4.78532886699881       -0.01594889421058
H           -0.11064544311450       -8.76799658321969       -3.03003737115110
H            1.05614178502112       -7.75149667677684       -3.87311662240382
H           -0.66848077967148       -7.57787050855625       -4.20597122077607
H           -1.65517904802908       -7.74888849557737       -1.25623421778832
H           -2.21796345508436       -6.56330864657583       -2.43578754982558
H           -1.55877182502488       -6.02777644304372       -0.88919138423802
H            1.19869613423092       -5.24858607427264       -3.33439326309530
H            0.13739518267200       -4.54792852716640       -2.11484781168711
H           -0.52659616119397       -5.07600802021927       -3.66212225188592
H            1.10514991117799      -11.26014205884868       -2.51549389970989
H           -0.31103405956999      -10.88869840836268       -1.53270789169657
H           -0.05188302316892      -12.53201963481713       -2.11890812956476
H            3.00710597788123      -12.67427582671180       -1.53833898710520
H            1.85393734658532      -13.95086436332630       -1.14629753222940
H            2.89445474344105      -13.28201985294347        0.11206239516732
H           -0.47424530465903      -11.77645815423133        0.86757226261070
H            0.83204596518897      -12.75320039283742        1.53535043651354
H           -0.21105886818816      -13.41825548900561        0.27712359807315
H            3.97208688667693      -10.96517167434542        2.04784827812631
H            4.51256786730365      -14.92328521147402        3.94039393087816
H            4.42101656720035      -14.38783680974098        5.61687825653159
H            5.28395960679578      -15.87260593999604        5.21201777558143
H            6.74113806335790      -14.80734090073713        2.67745439457239
H            7.50975734243028      -15.75696194429100        3.95023493514898
H            8.18136639196973      -14.19280570919186        3.48625289265949
H            6.51724383573314      -13.48912212786394        6.79216454416425
H            8.04890925949766      -13.41323347320291        5.92391942440082
H            7.37618383757670      -14.97670375854297        6.38881198132572
H            6.80974202680588       -9.32044230547317        4.73631872982951
H            9.46302399303386       -9.45774940740881        6.46622011503987
H            8.28809083569270       -9.14101945315076        7.74051594135257
H           10.01490268274874       -9.05747655276770        8.09384297685104
H           10.87722303625775       -7.53706730343344        5.52139912079325
H           11.42379037930715       -7.13426062093675        7.15007255060628
H           10.66652889260821       -5.90059593185335        6.14089564699464
H            7.98109061188504       -6.75804326462422        8.63878370156388
H            8.95812678424641       -5.44201884226958        7.99259053796363
H            9.70665730531790       -6.68056980630447        9.00073978191510
H            6.14022762429685       -1.03568246385320        5.46807834715461
H            6.90446715477350       -0.79805670795251        3.89803117408701
H            7.58942629083587       -0.03789107435427        5.33545734370097
H            7.29398467555679       -2.48948253198673        7.24867476839309
H            8.73079762551368       -1.47283891934535        7.12127848570183
H            8.86121031881262       -3.21791211580911        6.90126400546443
H            9.17219893261447       -1.88732150866867        3.39862508418786
H            9.96239175616900       -2.87751373477492        4.62392429110989
H            9.85501361560738       -1.12952981390028        4.83852780791152
H            5.17984366484908       -3.13613955411917        2.66985097304641
