30
 energy: -6.217026814840 gnorm: 0.000875447297 xtb: 6.5.0 (97a52f5)
C            2.43927624739198        0.25844522735185       -0.57864810920519
C            0.98125826314864        0.11938002142382       -0.30934736736982
C            0.50377866807437       -0.91226599929931        0.48757197106537
C           -0.84019613856569       -1.02555297395203        0.76359128821643
C           -1.75370020220216       -0.10488605828509        0.25431237625520
C           -3.17291771299476       -0.21054255803782        0.54161293640421
N           -4.06479633816253        0.63136439981751        0.08305074630792
C           -5.32250051400953        0.30062535535016        0.50951640371353
S           -6.91371499577643        1.02795339435658        0.24275871062250
C           -7.70335240837898       -0.19869846327088        1.22322268009403
C           -9.05200439390227       -0.33665620503726        1.51907143074553
C           -9.46354721448224       -1.38156327371740        2.31316797422094
C           -8.54208190279306       -2.29653287589871        2.81923354492779
C           -7.20447919998374       -2.17294460660849        2.53544774081668
C           -6.77307438349759       -1.11396458084187        1.72875410228880
C           -5.42335864861723       -0.81315868751482        1.31060737502939
S           -3.84283650958801       -1.49906790470734        1.55119614389339
C           -1.27018257090918        0.93246883891517       -0.53894995437496
C            0.07481365082642        1.04285540608497       -0.81225245724753
H            2.92754040044399       -0.71607573482084       -0.61314581685565
H            2.92180087873825        0.84921333846395        0.20067155720905
H            2.61797692125598        0.75152786504922       -1.53472422555585
H            1.19959664800741       -1.62634034485920        0.89345725475211
H           -1.20146227947235       -1.82927196217970        1.38049624499954
H           -9.75638489679682        0.37404772234592        1.12275253157408
H          -10.50941456354182       -1.49453161696165        2.54688003744786
H           -8.88378236808943       -3.10833605077131        3.43996537561629
H           -6.48442356991189       -2.87357189427219        2.91979026850730
H           -1.96792790344082        1.65021544892901       -0.93306509976341
H            0.43641703722711        1.85484477294863       -1.41960566433270
