44
 energy: -9.660626342250 gnorm: 0.000723255369 xtb: 6.5.0 (97a52f5)
C            2.40029175387421       -0.92157568401695       -0.19182598451685
C            0.96838467579243       -0.51631717133128       -0.15256462590980
C            0.32005544357596       -0.35351911160122        1.06380950813886
C           -1.00584383791276        0.01358305754941        1.11205820817206
C           -1.72325372342060        0.22597688693059       -0.05954868449670
C           -3.12637487892799        0.62053532112654       -0.02204520535352
N           -3.82936184367423        0.83555478426037        1.09653340783022
N           -5.03318429449396        1.17614702142985        0.75992400247004
C           -5.11499302737284        1.18323112824494       -0.57859127988144
C           -6.28822242917664        1.51670257641260       -1.36881564773234
C           -6.18647404574527        1.41500587701177       -2.75620406538001
C           -7.23724239714402        1.71509188273547       -3.58400364407492
C           -8.46138876862428        2.14107128552457       -3.05888704776779
C           -9.57112614764455        2.46502533965804       -3.89502679331544
C          -10.74715507794108        2.87964790972757       -3.37128499171803
C          -10.92194156524730        3.00836726753279       -1.95931636074941
C          -12.12513877606829        3.43495135220862       -1.39396715167021
C          -12.26103909938906        3.55002400802741       -0.02622629714838
C          -11.21072758666414        3.24636326202410        0.81401648581495
C           -9.98632137825452        2.81508912450172        0.29917625667162
C           -8.87631978460253        2.49358843478423        1.13598762596591
C           -7.70335056038155        2.07926301667786        0.60785819395764
C           -7.51207913010461        1.94324755476596       -0.79767729275168
C           -8.59773570850731        2.25607743473311       -1.65416362941519
C           -9.83819997785413        2.69314361423230       -1.10334243579830
O           -3.91124618054071        0.82843824237766       -1.11234078141758
C           -1.07708818149660        0.05869970697604       -1.27796088314041
C            0.24910398214338       -0.30849320367898       -1.32223129072424
H            2.52253391787971       -1.94476647471780        0.16506987260112
H            3.00615908179461       -0.26906757782694        0.43789003063743
H            2.80068796680783       -0.87063789191813       -1.20481099924812
H            0.86859869161245       -0.51865178534013        1.97535400452616
H           -1.50333032416096        0.14021332568807        2.05742550503782
H           -5.24895656271877        1.08941789330630       -3.17321323139200
H           -7.12885061414849        1.62590828905406       -4.65107809016794
H           -9.45583516511044        2.37456456991665       -4.96126051759771
H          -11.57368961358079        3.12048344581848       -4.01698104419393
H          -12.95065791766378        3.67534724056698       -2.04130938650137
H          -13.19797608877152        3.88179859883168        0.39024177891460
H          -11.32598359473880        3.33989263119559        1.87997666907212
H           -8.98924130236152        2.58743389732204        2.20210837524171
H           -6.88376439320896        1.84457881136630        1.25859520743096
H           -1.63213280413686        0.22152141308076       -2.18572513992585
H            0.74038126829726       -0.43640730516862       -2.27146263050613
