61
 energy: -12.747183537630 gnorm: 0.000873027246 xtb: 6.5.0 (97a52f5)
C           -4.77010620317697       -3.86531029155299       -1.53425442611571
C           -4.81885651911566       -2.46800906969244       -1.02274650013155
C           -4.59461797605033       -2.20149499820944        0.32033195820655
C           -4.61819955751029       -0.91067567274564        0.79660195221502
C           -4.87470713192603        0.15600822626102       -0.05740546713266
C           -4.86640267782836        1.52930198958309        0.46624223360347
O           -3.89047325979332        1.98908249065613        1.32787780691414
C           -4.15822470770824        3.31869086236884        1.58581849432190
C           -3.56220100856197        4.29613086961543        2.38961340491707
C           -4.14406002245411        5.54187652560239        2.46463524545958
C           -5.29489526036912        5.86902147753000        1.74469219160891
C           -5.89983307781776        4.95405589995836        0.88749355393123
C           -7.09374575720753        5.12887328383072        0.06272155742842
C           -7.68257216606606        6.36876227470792       -0.18777873108205
C           -6.99711760830805        7.65157333195529        0.07239765629246
C           -7.65835463681294        8.72053777443274        0.68020610897603
C           -7.01939819596693        9.91718128880692        0.90168746981134
C           -5.69743676332027       10.09951286694034        0.52180461296059
C           -5.01420506667335       11.40358015893678        0.74393968290630
C           -5.04479969219895        9.05711564060062       -0.12096621473840
C           -5.68072449383142        7.85909120732842       -0.34781079699340
C           -9.00568211973548        6.42401826306694       -0.78662556990641
N           -9.55764881886688        7.58357757918542       -0.88124513311700
S          -11.07861062181416        7.90057147738285       -1.45924827778655
O          -11.08876338976919        8.10128250346582       -2.94309379216289
O          -12.14469038986268        6.96660614473119       -0.96433443911608
C          -11.21048709133832        9.54015480495302       -0.53043815400333
F          -10.97745127749593        9.28811713796418        0.76313170251045
F          -10.28997038134551       10.36582159184517       -1.03953924365951
F          -12.44761934064440       10.00676417875413       -0.72634867032011
O           -9.63045457794101        5.26834248778101       -1.22785625583728
C           -8.96600797560125        4.06556254918914       -1.13053282470845
C           -9.58119024624859        2.93145648554182       -1.66035156192984
C           -8.98132752938988        1.69727769410057       -1.58704438210955
C           -7.74625774463799        1.56260006664233       -0.99440164845848
C           -7.08213764218621        2.66596953708389       -0.46774764958021
C           -5.79404284806503        2.55675184543300        0.19013030233751
C           -5.30919086282887        3.67878141194172        0.86575244627956
C           -7.70309158883606        3.94623227805052       -0.50802100455852
C           -5.06424458803419       -0.10841688898882       -1.41125186606804
C           -5.04084501751195       -1.40104459251343       -1.88214751453020
H           -5.24830632880620       -4.55335072325506       -0.83639297668934
H           -3.73818794965664       -4.18797587762767       -1.67575909572928
H           -5.28556470055616       -3.95405484331691       -2.49091944007027
H           -4.39443169632470       -3.01946591309418        0.99112628582171
H           -4.43413221481561       -0.70760890332582        1.83791451031241
H           -2.67874267145223        4.04996572142151        2.95121853373426
H           -3.70043327330187        6.28728657722521        3.10402344773397
H           -5.73486009195086        6.84026619092145        1.87457252403435
H           -8.70254418199342        8.61647411079433        0.92519130089195
H           -7.55338977949233       10.73270526163703        1.35891474768147
H           -5.40362980384941       11.90480128394774        1.63056853250418
H           -5.15988104655061       12.06509524781290       -0.11056026625503
H           -3.94209587492451       11.26555907375515        0.88716186503768
H           -4.02866877940267        9.19631660197895       -0.44796013761565
H           -5.16638766384325        7.06380858145231       -0.85965882925547
H          -10.54575655828947        3.04787393226014       -2.12267844997619
H           -9.48133322113577        0.83220223860344       -1.99130007278855
H           -7.29765442808208        0.59004216859029       -0.91437051452557
H           -5.20737924627821        0.71429680818821       -2.09069912297641
H           -5.18680465442876       -1.59251023046231       -2.93146109849986
