47
 energy: -10.258519127217 gnorm: 0.000519225840 xtb: 6.5.0 (97a52f5)
C            2.40547675060850       -0.18817322493637        0.29258293536109
C            0.92064910891429       -0.17512157858431        0.18162211252443
C            0.16479818594256       -1.27176731351333        0.57145062305765
C           -1.20845360209623       -1.24891108808405        0.48315682296493
C           -1.87824366801908       -0.12691114665142       -0.00366917675941
C           -3.33583365211638       -0.11163604424104       -0.07494860222244
S           -4.33943100215496       -0.96350754497710        1.04224250757968
C           -5.77241290417053       -0.31489103701723        0.28538890749529
C           -7.09922301625017       -0.60921973986134        0.75976821759512
C           -7.20736442706357       -1.45795091042638        1.86738407315908
N           -7.28454094795859       -2.16442446961494        2.78607581865141
C           -8.16033963875990       -0.05906580616400        0.11097521718467
C           -9.57045285973265       -0.20975513099692        0.39280858344917
C          -10.49681489538783        0.44394537450184       -0.42552983678872
C          -11.84732010168616        0.32903054056324       -0.20199814657236
C          -12.33090666407611       -0.44289625348191        0.84875949562786
C          -13.70929549631964       -0.56115163517923        1.07632276483840
N          -14.85112602910983       -0.65691778686269        1.26594640072812
C          -11.41703979374238       -1.09596645242184        1.66839487269280
C          -10.06737323647131       -0.98271867340089        1.44584800924521
N           -5.50276999854929        0.45012628066726       -0.74220002160179
C           -4.15472002256875        0.55801915738896       -0.97728744543146
C           -3.67276472193036        1.32014902223068       -2.14750037883697
C           -4.26640015403685        2.53913172736498       -2.47489080360779
C           -3.84477852506731        3.25407277100203       -3.57014379970457
C           -2.82488136280096        2.76052079305371       -4.36889690263597
Cl          -2.28665000822688        3.66342744029337       -5.73605912279581
C           -2.23742746709362        1.54147896247812       -4.06794951025269
C           -2.65982508123931        0.82699776075994       -2.97293114419200
C           -1.11309409060208        0.98090109993857       -0.37048783109618
C            0.25967300669448        0.95369117656372       -0.28015814257155
H            2.78827648219946       -1.20666204444684        0.36232457992607
H            2.73096266613733        0.35559479167054        1.17983504498021
H            2.86564992834276        0.27914135244422       -0.57852696895116
H            0.66457295182249       -2.14737801877117        0.94842093943296
H           -1.78463656444683       -2.10482864769447        0.78867959065864
H           -7.91790535500463        0.57054520580454       -0.72648264259413
H          -10.13961932886091        1.04458739158044       -1.24440726143743
H          -12.54966652079738        0.83730362865928       -0.84057466498381
H          -11.78584455732368       -1.69623332656761        2.48279474833015
H           -9.38609145112932       -1.50099473386965        2.09353811468698
H           -5.06202629091683        2.91193805602621       -1.85346688560401
H           -4.29706780357828        4.19819487043900       -3.82212588986060
H           -1.45300963151176        1.16710711010276       -4.70358982002304
H           -2.21513635144514       -0.12587498723868       -2.74394119654256
H           -1.61127425227304        1.86966864240140       -0.71567645035613
H            0.83499239385818        1.81735443907001       -0.56638773474365
