55
 energy: -11.514353053508 gnorm: 0.000766949332 xtb: 6.5.0 (97a52f5)
C            2.29929492236174       -0.34110780840716        0.63603579991828
C            0.82628211139599       -0.26524407840598        0.43187925847659
C            0.01857404754797       -1.38066565209874        0.60794397373018
C           -1.34384354960038       -1.29922147355395        0.42621415021390
C           -1.93773472092660       -0.09727146256318        0.06846788451777
N           -3.36425449170580       -0.01031543881782       -0.12301227134339
C           -4.35637685973054       -0.44784856396709        0.76359904798395
C           -4.10387640048256       -1.12987579349044        2.04018209729092
C           -4.70443003311348       -2.35768196602992        2.29747499307121
C           -4.47484972098357       -3.02699064849633        3.47784581032285
C           -3.64226948773105       -2.47628780936031        4.43313979413881
C           -3.05002887933182       -1.25421771406528        4.21387839611669
C           -3.27001657342771       -0.54996545753403        3.02882498985944
O           -2.71057882629306        0.69612012696606        2.82463222194257
N           -5.56725694521160       -0.19166551907220        0.29489763654232
C           -5.40309041146621        0.42756943116042       -0.89293283458022
C           -6.52282846352566        0.93319661805798       -1.70567746916662
C           -7.51601833097079        1.69513984296264       -1.10278039187850
C           -8.56469668566773        2.20596286421503       -1.83468598731179
C           -8.64535743166876        1.95660755381196       -3.19055543678792
C           -7.68765579737248        1.18796487065034       -3.81050857322205
C           -6.61791430819407        0.65276236444915       -3.09140348040174
O           -5.67787083864162       -0.15181487563852       -3.70677435757307
C           -4.03338443691033        0.54966352927812       -1.19317755851052
C           -3.43303956619412        1.24723706521489       -2.33272262863435
C           -3.86753479953134        2.52520990863358       -2.67590903162852
C           -3.31539637786285        3.20407134666360       -3.73694349244238
C           -2.31229815168616        2.61753831672662       -4.48470155502464
C           -1.86788198570432        1.35353070157500       -4.17570817109009
C           -2.41394529160939        0.63801688473226       -3.10798929656122
O           -1.98840535264266       -0.64346471235527       -2.81992666275293
C           -1.13319960403348        1.02039696718566       -0.10128712589307
C            0.22919864365607        0.93639739396938        0.07851575865507
H            2.63288175361742       -1.37328468651188        0.74695000717869
H            2.59406976628284        0.20432697622203        1.53319151108004
H            2.83213787940513        0.09053082123540       -0.21193254202614
H            0.46859407753276       -2.31702223091077        0.88964989089522
H           -1.96674242540262       -2.16608378193809        0.55964548076053
H           -5.34841625203461       -2.78480045061191        1.54847935214868
H           -4.94270674395746       -3.98125016729072        3.65633671129376
H           -3.46197029712516       -3.00319812154816        5.35569865221255
H           -2.41234671222113       -0.82403082610168        4.96525834744933
H           -2.18460891664849        0.96051094414682        3.60599305744494
H           -7.44636936708605        1.89105717539754       -0.04678160687335
H           -9.32038763687532        2.80241550779592       -1.35038581874790
H           -9.46430933056770        2.36034701402199       -3.76317113469515
H           -7.75990690897149        0.98696682826238       -4.86428861409919
H           -5.89680339202268       -0.26191171045934       -4.65360362623846
H           -4.64899180175739        2.98004590829295       -2.09201357092320
H           -3.66476513924267        4.19287711070458       -3.98498431619229
H           -1.88066904075893        3.15103627290321       -5.31567629164548
H           -1.09279656124093        0.89826632208262       -4.76566055271781
H           -1.30795568463056       -0.92499188950872       -3.46421712095206
H           -1.59255257569140        1.95347938514431       -0.37597251378026
H            0.84605990664994        1.80860678628174       -0.05465078955144
