52
 energy: -11.262257534038 gnorm: 0.000831680833 xtb: 6.5.0 (97a52f5)
C            2.57070846495951        0.31075140814638       -0.02954202243103
C            1.08485066503586        0.21150525553042       -0.00495617012861
C            0.43797461464041       -0.84924431702383       -0.62472430114610
C           -0.93669483792308       -0.93029056897119       -0.62987828672585
C           -1.70114845863480        0.05465823086810       -0.01866953225110
N           -3.14301714424980       -0.01605827174080       -0.04792455396627
C           -3.99569832003755       -0.64906791862944        0.86045034757387
C           -3.66141526961253       -1.35843530315370        2.06020098440848
C           -2.33675592341567       -1.45754730945683        2.49676790957809
C           -1.99734542288837       -2.12827047203178        3.64306437113101
C           -2.98320441263256       -2.74144001616883        4.41731120908645
C           -4.29004492339901       -2.67698265748730        4.04114957256519
C           -4.69022056575228       -1.98932048494303        2.85887091017243
N           -5.95634635194593       -1.94555405458191        2.52766137601072
N           -5.27010176724585       -0.48219276809525        0.40534372854091
C           -5.26119031771804        0.23805533562698       -0.77171290096096
C           -6.34644812107112        0.64928420202281       -1.61154501645141
C           -7.67217069028877        0.33717465452000       -1.29354463534691
C           -8.69669780179363        0.73814491527204       -2.10923462167558
C           -8.42118647431908        1.46086606275955       -3.26250057728567
C           -7.12738340319933        1.77805671466756       -3.59303786807319
C           -6.04977783932369        1.38548150299580       -2.78352792038919
C           -4.66011761168525        1.70678161356841       -3.10961930686758
C           -4.31661693942618        2.43121630049469       -4.26191358453325
C           -3.01064864709998        2.72637281639463       -4.55995317721930
C           -1.98883753111884        2.30985772259183       -3.71867691906443
C           -2.28464090639762        1.60117370079891       -2.58618570128498
C           -3.60795778716503        1.28452560651320       -2.25473258930717
C           -3.93992223968511        0.53881305400798       -1.07028239097374
C           -1.05838531450590        1.12132316706678        0.59593206121515
C            0.31662223471890        1.19803751529633        0.59928223540662
H            3.03102813227863       -0.67648794883692        0.02627746927687
H            2.94129937759406        0.89644065371126        0.81257099141079
H            2.91095930057177        0.78962675244955       -0.94847451697047
H            1.02487730537496       -1.61178154753930       -1.10761182858463
H           -1.43753817016418       -1.75164859690221       -1.11185298923195
H           -1.56194218071369       -0.99312221599074        1.91900221434293
H           -0.96539203789586       -2.18407618927032        3.94853116295378
H           -2.70573568782758       -3.26671247105240        5.31659136077913
H           -5.04711792414717       -3.15134480087926        4.64035729133071
H           -6.61991393992644       -2.38858657400212        3.09645118910966
H           -6.09868102686825       -0.86307906556208        0.86067433860026
H           -7.87755519523500       -0.22276837256504       -0.39864966172929
H           -9.71574946889587        0.49347398116472       -1.85752861182986
H           -9.23074933915778        1.77397689928286       -3.90151417708255
H           -6.94477864638635        2.33823115788477       -4.49163120239143
H           -5.08760220249679        2.76529207622434       -4.93165734866474
H           -2.77468122383865        3.28376277381359       -5.45183855625150
H           -0.96432659328828        2.54389636909073       -3.95836650609206
H           -1.49140601899970        1.27985386591939       -1.93873122131465
H           -1.65277719221790        1.88733996840534        1.06254703299788
H            0.80868177541709        2.03155764779935        1.07062093973353
