46
 energy: -9.593190566001 gnorm: 0.000319737455 xtb: 6.5.0 (97a52f5)
C            0.84865455371346       -0.22962524408693       -0.01021793101257
C            2.38314989669932       -0.07955497218870        0.03180577940466
C            2.81696768118024        1.01035385579579       -0.96966912127799
C            2.81586897340139        0.33323313953753        1.45363641567816
C            3.00266945541745       -1.32852077890143       -0.31611404072810
C            3.53984731148800       -2.38486876835836       -0.60141972699161
C            4.16687856675528       -3.61212790956997       -0.90930399808484
C            5.36908721589240       -3.61609263034038       -1.57598736369626
C            6.02181778396130       -4.80153211893830       -1.88607569906159
C            5.49857876298599       -6.03555063899532       -1.53813435656709
C            6.18764380976582       -7.28755284880110       -1.85690292080600
C            7.39808237817405       -7.31220824385098       -2.53019271587034
C            8.04936955309330       -8.50689221279513       -2.82258343441621
C            7.50625359656512       -9.70028540067076       -2.44863727270808
C            6.27528271517521       -9.74144430709801       -1.76225948990458
C            5.69999923188060      -10.96732256818960       -1.36953704083331
C            4.50749693679895      -10.99067110912916       -0.70922349320617
C            3.84114278331669       -9.80510679412833       -0.41270289998286
C            4.35605095232438       -8.57024527341807       -0.77084433677273
C            3.66348576712974       -7.31667907533742       -0.46034524091759
C            2.44811028519551       -7.29660578441373        0.20296835343205
C            1.79891964160958       -6.10392231442976        0.50168207167425
C            2.35111191702072       -4.90970016821850        0.14455608770663
C            3.58495815386814       -4.85922174449163       -0.53484953065413
C            4.25191577480545       -6.07442419509301       -0.84641136381947
C            5.60350183994796       -8.52795607075113       -1.46179713614330
H            0.35684037130976        0.70661395778144        0.25259332800300
H            0.51558817971057       -0.99504660992889        0.69023238260863
H            0.51523004428388       -0.51898596603290       -1.00646154918242
H            2.36340162000387        1.97030539170120       -0.72443280589464
H            2.51914848983651        0.74439310981805       -1.98357009566421
H            3.89948229007396        1.13516795835848       -0.96020872959229
H            2.36181218615637        1.28106867574595        1.74145055564741
H            3.89829367584930        0.44524266076499        1.51111962106338
H            2.51767817300264       -0.42015445120046        2.18230389292518
H            5.80690597232677       -2.67329726939467       -1.85797554820052
H            6.95933696898013       -4.74484227113884       -2.40773645216153
H            7.85780480190535       -6.39214803798431       -2.84087071653953
H            8.99037594419449       -8.48715504183194       -3.34822570583292
H            8.01094771338424      -10.62385265856311       -2.67507393866709
H            6.21500778455081      -11.88478378010391       -1.59761962041787
H            4.07630094586323      -11.93340798722914       -0.41344450145162
H            2.90398648203986       -9.86447522817094        0.10936092134761
H            1.98331715033246       -8.21850971581096        0.50046832630878
H            0.85386344864777       -6.12536702678633        1.01989468759987
H            1.84609221936374       -3.98880153311253        0.37881635353153
