29
 energy: -5.555889935137 gnorm: 0.000687651618 xtb: 6.5.0 (97a52f5)
C            2.51158406784462        0.03302051133052        0.02813636577652
C            1.02185004377128        0.02060618578781        0.02467278547043
C            0.31969939889118       -1.15768992153069       -0.19184138329963
C           -1.05854185059320       -1.16308848057802       -0.21561934680334
C           -1.76928163092219        0.01291476037791       -0.02932781529530
N           -3.21774285070394        0.00722662618205       -0.04991535598755
C           -4.02393560403630        0.51314631040342       -1.06262611629623
C           -3.54716581767015        1.17255038220258       -2.29764624788786
C           -5.33141567885621        0.30928975483145       -0.70205583038882
C           -5.34270005891671       -0.33666305008910        0.54220880417509
C           -4.04198907575192       -0.51269864143843        0.94060399848214
C           -3.58152232732206       -1.18122868618191        2.17711556792902
C           -1.07269226543839        1.19381222998952        0.17823420106865
C            0.30557732050712        1.19659693139288        0.20216203020163
H            2.91515696274500       -0.95139434578729        0.27095980035093
H            2.89625398294130        0.73941545435391        0.76564424917205
H            2.89895350591141        0.32307459505324       -0.94994975823608
H            0.86464835076511       -2.07410591668518       -0.34249301433618
H           -1.60104572399531       -2.07779434714781       -0.38049656795821
H           -2.47575010006674        1.02040998373198       -2.43141379578090
H           -3.73308872667026        2.24659259839068       -2.26030232598912
H           -4.05525214311376        0.77028277077932       -3.17499928204105
H           -6.19402240298270        0.59478789465500       -1.28204640022439
H           -6.21527963749275       -0.64859765858781        1.09297529472156
H           -4.24329980179688       -0.95401969001532        3.01422313128825
H           -2.57670385812520       -0.85204907914620        2.44464608213717
H           -3.55807938242183       -2.26401489367481        2.04661518533454
H           -1.62605766290233        2.10562177333926        0.32182032308568
H            0.84059296640255        2.11756594806199        0.36073542133174
