71
 energy: -15.566615651339 gnorm: 0.000244458304 xtb: 6.5.0 (97a52f5)
C            3.42787857799040        3.22567449554779        2.44697212172985
C            1.96773362226258        3.00013421221408        2.26285273130199
C            1.50748000906126        1.98854860205929        1.43098487063131
C            0.15919135097613        1.79634779352876        1.23549572647767
C           -0.77332434129559        2.61661773184271        1.86219373620419
N           -2.17730167941455        2.42347629335778        1.63534078012400
C           -3.10185499032974        3.41774204612026        1.23871564775440
C           -2.94753191936128        4.79072367519314        1.06148688101566
C           -4.02857143492400        5.53055534553044        0.64263545258797
C           -5.25926795954062        4.92552143528600        0.38995030632210
C           -5.42538269099305        3.56758851989063        0.54676272443017
C           -4.33954604010764        2.80727436147866        0.97095934095496
C           -4.17668531620264        1.38749850297389        1.20695977819753
C           -5.04398772026674        0.31303491773727        1.06964947220296
C           -4.59805152508512       -0.96990882719327        1.37824610269255
C           -5.47812697567551       -2.14008396920719        1.18514476716616
C           -5.56042878328001       -3.15501761353488        2.15051684152355
C           -6.32796910899267       -4.27217988346807        1.93780294574675
C           -7.01508026980107       -4.37954153017544        0.73841951318942
N           -6.93775279879993       -3.38860267284579       -0.19469654818442
C           -6.20570650747239       -2.28902586446309        0.00824261068804
B           -7.74419020126814       -3.82094528363046       -1.43673237051136
F           -8.81145088914026       -2.96324023657958       -1.64278207272240
F           -6.91776074660334       -3.90203271543686       -2.54476389497946
N           -8.25449290746970       -5.22307775477001       -1.04905295486416
C           -7.82050236089438       -5.46694783660909        0.22630765180139
N           -8.21213948402920       -6.69057786866091        0.64090300748840
C           -8.90772685683334       -7.21461139616975       -0.40819841089655
C           -9.54100719169087       -8.49776680443500       -0.53783890979118
C           -9.53492331663928       -9.40757080061596        0.52290535088789
C          -10.13897172727539      -10.62909923757001        0.39687809216964
C          -10.76381937429675      -10.97182651077633       -0.79374359919890
C          -10.78154033172684      -10.09446966240498       -1.84953466146238
C          -10.17593074270887       -8.83447868597798       -1.76227236044857
C          -10.18182993877253       -7.88686011481841       -2.88366359708720
C          -10.77207636938537       -8.17601637871774       -4.12068411341492
C          -10.74912083884013       -7.26890019402844       -5.15209559068967
C          -10.13570453965739       -6.03318520818370       -4.99471200035720
C           -9.54827798413922       -5.71262161742651       -3.80159251605527
C           -9.56395406552947       -6.62137039164700       -2.74087366445099
C           -8.94456803432159       -6.30924997436751       -1.49599479959445
C           -3.27521813501748       -1.14655647463225        1.83557468274146
C           -2.40562006814684       -0.09399930166306        1.95671779836631
C           -2.84875348271913        1.18684310050560        1.62719730307105
C           -0.31271782471275        3.63478990622014        2.69007734786019
C            1.03719951966980        3.82319716112799        2.88352772064161
H            3.98497385283877        2.29333403806784        2.34959267923063
H            3.64125453660192        3.63665947999211        3.43409722430788
H            3.80762549061154        3.92431197567828        1.70082950665433
H            2.22001091861663        1.35479787210311        0.93147293207411
H           -0.19055787453508        1.02192732002998        0.57575358113974
H           -1.99322003063908        5.25077373526883        1.24276926601775
H           -3.92297280594386        6.59408740410984        0.50508514409473
H           -6.09015389148527        5.52888963133830        0.06361895780877
H           -6.36929503209198        3.09209433070352        0.34721529510407
H           -6.05052246976243        0.47211615518568        0.73019735648629
H           -5.01009393549097       -3.04625063941730        3.06899237637240
H           -6.38944081175060       -5.06152482725181        2.66582269743320
H           -6.15608006147725       -1.54976358863676       -0.76973001955593
H           -9.04770366196263       -9.12916376150271        1.44087382296467
H          -10.13046622757300      -11.32430209043322        1.22030887690653
H          -11.23787479679711      -11.93506794753979       -0.88848864551812
H          -11.27317267543624      -10.38745877244075       -2.75893353458983
H          -11.25026663108878       -9.12576405783660       -4.27494724450696
H          -11.20830198347095       -7.51797870563325       -6.09476932334388
H          -10.11952123291073       -5.33058672136460       -5.81163735182233
H           -9.05820216802854       -4.76489093717605       -3.65937619143185
H           -2.94101775396076       -2.14291118295423        2.06729545420074
H           -1.39812707132178       -0.23864951254327        2.30282733845147
H           -1.02847665806780        4.26375068249180        3.18932780352072
H            1.38417736844571        4.61737682928530        3.52197275663596
