23
 energy: -4.632361818828 gnorm: 0.000761257807 xtb: 6.5.0 (97a52f5)
C            2.48522415097637        0.00827511610512        0.00275773071869
C            0.99569974613182       -0.00225991454627       -0.01842325546797
C            0.28342293250271       -1.18082054946295        0.15835374824900
C           -1.09508639175205       -1.17951287565830        0.15100233889723
C           -1.79864397850585        0.00217597241880       -0.02993371966754
N           -3.24491726588981        0.00520595461497       -0.03563377546306
C           -4.05838563211864        0.75235448158338       -0.87181655706257
C           -5.36337912660873        0.47376128714911       -0.57238658721145
C           -5.37074292139706       -0.46563735998843        0.47096332692078
C           -4.06979949174805       -0.74496624927428        0.78645789595152
C           -1.08952651436589        1.18187720008845       -0.20205628246216
C            0.28886246467112        1.17875628821100       -0.19463453897137
H            2.89100486772361       -1.00386649625465       -0.02446804572115
H            2.85612125789291        0.49336567452812        0.90668915225492
H            2.88290511826248        0.54855641806879       -0.85748706634528
H            0.82050652896926       -2.10264559181745        0.30283337744940
H           -1.64148032200103       -2.09742160088580        0.28005509442689
H           -3.70239551910938        1.43047726564793       -1.63016602741875
H           -6.23173218828485        0.90021251512308       -1.04995627640431
H           -6.24522992572952       -0.89169899653185        0.93755498248770
H           -3.72354375925684       -1.43016622136275        1.54307905633367
H           -1.63204508030467        2.10163110833266       -0.33428008462914
H            0.83200104994198        2.09910657391120       -0.32600448686507
