79
 energy: -16.901570260863 gnorm: 0.000989535447 xtb: 6.5.0 (97a52f5)
C            1.15784708975892       -1.44487780058216       -1.63448036694289
C           -0.30800838919144       -1.35661248278980       -1.38899959357066
C           -0.88574076590480       -2.01322660955885       -0.31094547784014
C           -2.23402194405790       -1.91224406962315       -0.06258674499015
C           -3.06309182980832       -1.13958117460161       -0.88391669155697
C           -4.51242144006610       -1.02838459012375       -0.61313522900578
C           -5.11678978568914        0.26263056282759       -0.49215663235750
C           -4.33622574169233        1.44112588463384       -0.52222555114241
C           -5.17137982681354        2.49787820072589       -0.39630477494733
C           -6.48972160094506        2.00023921588376       -0.28222504891076
O           -6.44657016501192        0.61507489596611       -0.32039066621594
C           -7.60297349794819        2.88655322270299       -0.13486984545855
C           -7.39541763925044        4.34789771534276       -0.23131992488276
C           -7.81882864679230        5.20784194486507        0.78858030044036
C           -7.62687786938268        6.56601168916705        0.69536334001628
C           -7.01309059027488        7.12505553985333       -0.41731595458676
C           -6.78479493741281        8.59403826288069       -0.50093267948648
C           -6.58118033791953        6.27967986225454       -1.43050900876272
C           -6.76946369424980        4.92041010644860       -1.34477591182573
C           -8.89909388646488        2.39263063364936        0.13848782763411
C          -10.07981553608260        3.15093738256249        0.30577676747056
C          -11.10492652683861        2.28637670791093        0.58718835156404
C          -10.58990809431622        0.97450813186920        0.57930611745449
N           -9.24978910993989        1.06867992432897        0.30533336222628
C          -11.33447515947174       -0.21033976242254        0.93038544854218
C          -12.58664112457804       -0.23414104720062        1.60939629133868
C          -12.92085726614499       -1.53399398377878        1.87089483780231
C          -11.88630884010315       -2.36941903372652        1.36736126926506
N          -10.97472873542654       -1.51470190256236        0.78783007111272
B           -9.97936300617947       -2.20644824602173       -0.15425239893589
F           -8.95709550824706       -1.36092517859189       -0.49633290183405
F          -10.67815280964082       -2.62718080377002       -1.28263998055310
N           -9.45199923365552       -3.46100623200350        0.56476017217329
C           -8.26578497960922       -4.11229911408321        0.42207485590029
C           -8.50502870592940       -5.43605045842847        0.88367517998369
C           -9.80054621386696       -5.52948366784132        1.30989751987799
C          -10.42107198017891       -4.25697232682114        1.14408979202562
C          -11.69344328835227       -3.76136697665318        1.52752119227509
C          -12.72728140666311       -4.53722365632192        2.18219369756737
C          -12.62634378329347       -5.80602547807343        2.76505480358566
C          -13.86520960707945       -6.12152276925955        3.28124945594157
C          -14.69677560074098       -5.05291947142566        3.01062005007157
O          -14.02369366918200       -4.08337878718099        2.35025333500888
C           -6.99065371822328       -3.59469730331288       -0.01266299688702
C           -5.85734230917813       -4.38066416334087       -0.30376972253065
C           -4.81015515425460       -3.53964827857375       -0.57437887888185
C           -5.26926993346153       -2.20997852135103       -0.43981164165249
N           -6.60448028398506       -2.28164738733826       -0.09990249556484
C           -2.47038177433262       -0.47719626059176       -1.96516755638360
C           -1.12082869306223       -0.58253485663286       -2.20634167325201
H            1.54919956075746       -2.41578362729872       -1.32919525638167
H            1.69006599034915       -0.67543546866504       -1.07442853315723
H            1.38882338487349       -1.31299850584537       -2.69189514322261
H           -0.26167816758753       -2.60372548739828        0.33769456533584
H           -2.66507435543607       -2.41210671102642        0.78748591459741
H           -3.26430099311747        1.49063277854109       -0.60348629522560
H           -4.87915966560655        3.53302994958302       -0.36156003269452
H           -8.28091177742989        4.78704716722795        1.66472994890419
H           -7.95052274322043        7.21157379825961        1.49371879795864
H           -7.58110603480978        9.14449146679723        0.00097148779605
H           -6.75429056415206        8.92938302905441       -1.53802970635726
H           -5.83910481443443        8.86550469842347       -0.03095189735563
H           -6.09432123242702        6.70210694309117       -2.29268972499687
H           -6.44829676130397        4.27905142864686       -2.14717096525978
H          -10.15857050693065        4.22196718141169        0.22737644280433
H          -12.12931278720917        2.55848415083500        0.77918488756947
H           -8.58237034079753        0.31242917199507        0.16215857358575
H          -13.15671963634491        0.63324781331905        1.89683495955677
H          -13.79363298422569       -1.88060169148673        2.39705448922976
H           -7.77588198028638       -6.22853202557625        0.90573857846779
H          -10.25590558144205       -6.42825039863498        1.68238060063202
H          -11.74567824434728       -6.41295769913318        2.85992728578118
H          -14.13151508250739       -7.02418262084939        3.80654460134896
H          -15.74145574558610       -4.98298964900890        3.28952515833214
H           -5.82310372040367       -5.45726294885185       -0.30810178716589
H           -3.81335389228550       -3.83864376943745       -0.85127328170737
H           -7.18572953298313       -1.44763118572620       -0.03556803107934
H           -3.09200188118242        0.10854587210658       -2.62003520804069
H           -0.68080235879394       -0.06067114966597       -3.03872411957039
