80
 energy: -17.259483465801 gnorm: 0.000651918527 xtb: 6.5.0 (97a52f5)
C            1.11975751362821       -1.51502906286914       -1.61747112755148
C           -0.33912797950017       -1.42876711849400       -1.33291687506711
C           -1.21276305594213       -2.41297105581938       -1.77793028287418
C           -2.56081518930878       -2.32704097736806       -1.52675426711191
C           -3.09918697467674       -1.24146401239380       -0.82013426568916
C           -4.53593889243554       -1.15484140871180       -0.52643663397277
C           -5.21064534728598        0.10600927115919       -0.65617600518818
C           -4.64272082934713        1.17814803810889       -1.37277752530825
C           -5.46744047007796        2.25233018914018       -1.25044772158341
C           -6.56588140509185        1.87229950608540       -0.45382159491283
O           -6.42906696508682        0.52628618252877       -0.13641891875962
C           -7.58102826291095        2.81216419399247       -0.06976424745457
C           -7.32218188540899        4.25248026272180       -0.19730325767048
C           -8.30704311055447        5.13353550005311       -0.66800558409785
C           -8.06494618020464        6.48228873687331       -0.76874923884961
C           -6.83609826796599        7.01646326323719       -0.40155337173651
C           -6.56565448093038        8.47581096069258       -0.52143491847927
C           -5.84930886258985        6.15397812113125        0.05736036510907
C           -6.08274839276728        4.80410367174267        0.16060539508798
C           -8.84220421877235        2.37718208961188        0.45039118878013
C           -9.81967885325214        3.17441409056084        1.07092723672434
C          -10.90266366785037        2.37391386660995        1.38315621575882
C          -10.61343281358219        1.07606478879797        0.95785145824770
N           -9.35108716522399        1.09833388621564        0.41377409079654
C          -11.41150215934663       -0.11486079284065        1.16080342470672
C          -12.58961588308614       -0.20274320015125        1.91348002550066
C          -12.92017288048751       -1.53753633202719        2.04491229928406
C          -11.93358795472177       -2.30271872223398        1.38263043775845
N          -11.03756777523013       -1.40481653210452        0.82947188404764
P          -10.00650353516630       -2.21111513676451       -0.31378529443263
O           -8.90969643905309       -1.30449311301693       -0.83455642133966
O          -10.85287245725210       -2.77952453661876       -1.45142675524390
N           -9.39030490057680       -3.52293267670282        0.64827374505890
C           -8.22394487699503       -4.26713112052028        0.68303188704840
C           -8.53912236083070       -5.51192998895198        1.23968180459764
C           -9.88724822519953       -5.52332262695687        1.53827301184107
C          -10.42781493614707       -4.26149489182991        1.19920320852715
C          -11.75156694767275       -3.73468333183358        1.43577634110981
C          -12.85106609825082       -4.55162522216883        1.90500806766137
C          -12.82404049610407       -5.68955727303321        2.71824100558015
C          -14.13673272166073       -6.10413803120331        2.91397157902261
C          -14.96047724426790       -5.23790943803073        2.22931513896505
N          -14.18604080947766       -4.29251177607023        1.62670826017760
C           -6.89361941965621       -3.77417276744756        0.39037252663022
C           -5.68217190840612       -4.44462675704564        0.57039177990135
C           -4.66035465926255       -3.56389054944228        0.26749210569729
C           -5.22969972205852       -2.33272312444962       -0.10159439202153
N           -6.59312877030218       -2.48989545357079        0.00286199770036
C           -2.20793551533528       -0.24685712000426       -0.38999958292840
C           -0.86128982580960       -0.34144477661843       -0.64454901921472
H            1.42800336098594       -2.54664846070118       -1.78973446990770
H            1.70478694108907       -1.13085183088760       -0.78123523328973
H            1.37589507835714       -0.93410023078803       -2.50389763462460
H           -0.82057920991115       -3.25065987853040       -2.32861133739855
H           -3.22594604463388       -3.08684898246762       -1.89884505732271
H           -3.72194025252400        1.14875596323936       -1.92955187034066
H           -5.31359129557175        3.22075413304233       -1.69450646503389
H           -9.25646104282700        4.73397173886220       -0.97959919771046
H           -8.83235936560637        7.13989860991417       -1.13936270228356
H           -7.49043162846200        9.04289203838777       -0.63113193414999
H           -5.93926843085695        8.68304117686831       -1.38954501647798
H           -6.05095015342485        8.85061440044361        0.36386760223325
H           -4.89213100685677        6.55847010306589        0.33871163716147
H           -5.31690627331659        4.15501472630740        0.54854756670523
H           -9.72963282266629        4.22534376149253        1.28908868241657
H          -11.80538959040218        2.68838466460189        1.87942432178311
H           -8.92342234520502        0.29425119971787       -0.04395709068153
H          -13.11631713704029        0.62687354268606        2.35399392425653
H          -13.73891681438587       -1.93595153419704        2.61879428631146
H           -7.84224286012622       -6.31220264095238        1.42329796864173
H          -10.41925540919565       -6.35773450061517        1.95731109422215
H          -11.95883712104011       -6.11927231626498        3.19207336883724
H          -14.45446737251353       -6.94798594489085        3.50608491731356
H          -16.03755681183099       -5.28449598852677        2.17623854257675
H          -14.51337142991639       -3.54837581369419        1.00908915960866
H           -5.56795967643114       -5.46240492733983        0.90383239937999
H           -3.60659375398746       -3.77743939565213        0.33133111253692
H           -7.29704092275627       -1.80681733816589       -0.27208139344882
H           -2.59111431724075        0.58672330576333        0.17276563316588
H           -0.19337801221672        0.43136272732202       -0.30461199440869
