90
 energy: -15.371455911649 gnorm: 0.000418719853 xtb: 6.5.0 (97a52f5)
C            1.20522868251381       -0.47341432998073        0.29054063632448
C            2.67355269879149       -0.17251454313220       -0.07604952620519
C            3.45936188543854       -1.49577173971375        0.00485072888709
C            2.71796052955643        0.33912204869559       -1.52315738223567
C            3.25536587664436        0.87192789360139        0.95433697145641
C            2.62035675882028        2.29612522738720        0.86540708814331
C            3.31396059736385        3.24799943231562       -0.13457938285295
C            4.80420187315248        3.24407315068168        0.03582529905446
C            5.50644440412656        4.35526759015720        0.25152841473580
S            4.79505461638051        5.96332491818479        0.36604518530368
C            6.27238429677316        6.90647245086230        0.40229348566957
C            6.32805940752776        8.10115332910281        0.99522495970191
C            7.50545237931089        8.95770819403207        1.07307022991882
C            7.49379693203208       10.07380862980047        1.91268916368750
C            8.59016390710021       10.89717009816252        2.01430575696788
C            9.74629655983240       10.64784397842001        1.27350803294319
C           10.92488271313768       11.53639173734336        1.38189708896573
C           11.32958977309991       12.04448883246200        2.61739399812086
C           12.42417893923778       12.87045824891841        2.71871774184205
C           13.15813071640618       13.23463130856739        1.58784068003816
C           14.31429805908354       14.11298159755329        1.72288694815792
C           14.90871742296655       14.75437764055730        0.71501188048229
S           16.31724912468720       15.76764319459144        0.94230136113958
C           16.48586357650566       16.33418234941844       -0.72229431755871
C           16.77269774189282       15.55748019761487       -1.76611635113250
C           16.85540450062819       16.12574555213119       -3.15562173862357
C           18.13885609642217       15.68794567932196       -3.89791063440998
C           18.46191819980118       14.16519010312497       -3.79143496441600
C           17.75906854915569       13.26738852779222       -4.88488525434881
C           16.25329209009660       13.54782611776696       -5.00436139065222
C           18.41482319048018       13.54753326479683       -6.25292551111915
C           17.95728551575112       11.77457287050658       -4.56088528101500
C           18.33349788491670       13.67413295142728       -2.31620315458470
C           17.01650576025150       14.08242005250955       -1.63319955317033
C           12.75459665411651       12.72382710823582        0.35188412394441
C           11.66429772725484       11.89152666807439        0.25253953688813
C            9.75603546463601        9.53792286652384        0.42706504957824
C            8.66212188767869        8.70956141497999        0.33037430122019
C            5.46104248641749        1.89450242027751        0.00927513520461
C            4.81356904411207        0.95225378432894        1.04182300590197
H            0.78911315909808       -1.23215444588314       -0.37215487893310
H            0.57834742022363        0.41250967672596        0.20424357117763
H            1.12455316392884       -0.84539439995741        1.31172755410096
H            2.96878849361062       -2.27299135807281       -0.58117795236970
H            3.52788791092076       -1.84936232922436        1.03355912387707
H            4.46812636372363       -1.38490708115894       -0.39100319468092
H            2.36383501633865       -0.42926083689698       -2.21067878403991
H            3.72840567316873        0.60431131421154       -1.82523066042422
H            2.07470318886502        1.20759245708682       -1.65432588140774
H            2.93707442768486        0.46285826295029        1.93074536026171
H            2.64180404387179        2.76064626566727        1.85927884172934
H            1.55667098253250        2.21232789547836        0.61574719285480
H            2.93532925802134        4.27040392232725       -0.01191471517665
H            3.07320954369556        2.97812685358260       -1.16784584099496
H            6.56925288718849        4.29292335258173        0.38484003771256
H            7.13760322424138        6.48232863297376       -0.06727036136128
H            5.43213513710685        8.46236083492547        1.47155321398479
H            6.60901355159589       10.28336100216102        2.48960727264193
H            8.55947319747180       11.75695275423704        2.66140901674793
H           10.77941437298505       11.76935577224315        3.50084921364374
H           12.72444311905612       13.25133643273621        3.68014819527459
H           14.70968770872808       14.25669227965253        2.71419399358821
H           14.53109474926544       14.67249422590207       -0.28473926227494
H           16.33088236525483       17.38639757127012       -0.86919876282206
H           16.80791481053755       17.22105813243528       -3.10125007366961
H           15.95902784886181       15.83300191531258       -3.71141343844248
H           18.98523340145000       16.26249325774595       -3.50101807691148
H           18.07058385722678       15.97634793779095       -4.95321087866518
H           19.53590594629917       14.06477493020684       -4.03303916440281
H           16.06810057169022       14.55943452305270       -5.36187018872388
H           15.74092464468557       13.41422094874684       -4.05451644594084
H           15.79377724701022       12.86666759164881       -5.72080152247258
H           18.27977819769320       14.58408549702995       -6.55787872940970
H           17.97714127902013       12.91836512829488       -7.02788812648515
H           19.48468862703432       13.34186268776251       -6.22439355903458
H           17.40097102930281       11.48461977492973       -3.67021754432253
H           19.01053437047735       11.54369064481738       -4.40217972885917
H           17.60034539589431       11.15067051517436       -5.38033809616126
H           19.16564554296749       14.08951583210777       -1.73288117894464
H           18.47209331350329       12.58849318512896       -2.25860713047892
H           17.04038482204593       13.80827633402258       -0.57109694913852
H           16.17084946142939       13.52874625530962       -2.05313774515968
H           13.31417779133756       12.97307910136298       -0.53250324878691
H           11.36195358826753       11.51386637362399       -0.70914780924129
H           10.64322436861527        9.32602924525066       -0.14470828240489
H            8.69509196017291        7.86372432003340       -0.33335846842361
H            6.53557708982187        2.00248318575960        0.20598810416310
H            5.39558832185712        1.47358641464043       -0.99905546805775
H            5.09190544497975        1.30144917256345        2.04468804063845
H            5.25322758514114       -0.04850277759962        0.96775105426448
