79
 energy: -17.138702044906 gnorm: 0.000882960145 xtb: 6.5.0 (97a52f5)
C            1.16170242671950       -1.41047721694880       -1.60954349304828
C           -0.29805105736260       -1.34068222706203       -1.32496916296729
C           -1.16038839484845       -2.33656249847175       -1.76588747216107
C           -2.50955315021164       -2.26407185545363       -1.51657868969327
C           -3.06078992071977       -1.18054407555489       -0.81709450002971
C           -4.49940335581938       -1.10592774895837       -0.53059351699782
C           -5.18315209092703        0.15007916659919       -0.66110580463516
C           -4.62345531197080        1.22797922869865       -1.37556211284358
C           -5.45555957949172        2.29583042302017       -1.24955984222976
C           -6.55081915573856        1.90560850027627       -0.45344461373678
O           -6.40432620381032        0.55987607415913       -0.14068016721868
C           -7.57259987681398        2.83668524438012       -0.06631352003067
C           -7.32728786050340        4.27922922043384       -0.19539951608503
C           -8.31887346926701        5.14830560222260       -0.67369845762429
C           -8.08907916395121        6.49855720946283       -0.78140267426484
C           -6.86664355848285        7.04626285593478       -0.41319806913785
C           -6.60995991400081        8.50732652447844       -0.54230542686299
C           -5.87302169917049        6.19535152368884        0.05249810745340
C           -6.09398016443576        4.84398805740943        0.16266674128061
C           -8.83034896269530        2.38981655261663        0.45110751158161
C           -9.81781758370763        3.17476440728754        1.07190060515471
C          -10.89430517506723        2.36255027149606        1.37606159424371
C          -10.59046268774773        1.07004465348964        0.94497932963862
N           -9.32568748043616        1.10619915625408        0.40793713970269
C          -11.37296814798756       -0.13327125306568        1.12811027523869
C          -12.57016941807543       -0.24924420270191        1.85139335273535
C          -12.88825140232161       -1.59485310597377        1.95188754099836
C          -11.86304543622636       -2.32517626596534        1.30554705867626
N          -10.96089718415999       -1.41050790380037        0.78775731236803
P           -9.95895142556731       -2.18076695931369       -0.41155922676099
O           -8.85107381120161       -1.26868941725881       -0.89732459066022
O          -10.83973734432765       -2.66286290238333       -1.56227449306487
N           -9.35581832179331       -3.56509363642060        0.46463526943761
C           -8.17293508947901       -4.27133636838016        0.58372178462140
C           -8.47698236683092       -5.48983042868203        1.20352275095825
C           -9.83030333882097       -5.51420321962418        1.47567966692269
C          -10.38913763118940       -4.29440139973272        1.03193740468882
C          -11.69340739448630       -3.74862341672064        1.31456294771788
C          -12.77247998325972       -4.49775658659824        1.85460492820596
C          -13.06087323552716       -5.84248980531951        2.01398137300635
C          -14.31091937502254       -6.12175396342480        2.62950109106680
C          -15.05881124784937       -5.02853126334197        2.97744646792227
S          -14.12299274921090       -3.72093669821321        2.49576092706644
C           -6.84346392057143       -3.75720035134712        0.32959264736156
C           -5.62707961447861       -4.40768310112164        0.54786233657855
C           -4.61040188146061       -3.51252136539169        0.27217586715352
C           -5.18743532372426       -2.29083315760976       -0.11560686122324
N           -6.55064408580409       -2.46971248957560       -0.05220461459550
C           -2.18067042248373       -0.17534909795618       -0.38916027953732
C           -0.83274765888849       -0.25663837966172       -0.64131880624855
H            1.47884205866256       -2.43657142341943       -1.79761435930543
H            1.74277261226636       -1.03426831988493       -0.76700079948731
H            1.41355031830082       -0.81385061573498       -2.48671073563837
H           -0.75870216175857       -3.17248609486515       -2.31235672414581
H           -3.16572315423995       -3.03332553150404       -1.88511696427601
H           -3.70300183877141        1.20695704016188       -1.93328034436793
H           -5.30778895117292        3.26665283515845       -1.69041176837742
H           -9.26273160065019        4.73768826975673       -0.98779151118188
H           -8.86108108327476        7.14722515894022       -1.15815918253113
H           -7.54200666838430        9.06811796107161       -0.61673931120005
H           -6.01774863957368        8.71853962363785       -1.43309629718649
H           -6.06489633761238        8.88509348755039        0.32328592233111
H           -4.91989984169349        6.61019942069228        0.33250009488731
H           -5.32292274652712        4.20352435544176        0.55460501649676
H           -9.73871063356885        4.22518566169243        1.29688631930086
H          -11.80273344985326        2.66620014450397        1.86869805744637
H           -8.89553667383980        0.31112557024934       -0.06451215901292
H          -13.12545125914410        0.56589960955199        2.28294460053452
H          -13.75313908620928       -2.05904227932474        2.47539307589561
H           -7.76329317204310       -6.24760020967406        1.47983590809781
H          -10.34096236307400       -6.28136234552068        2.03050212373134
H          -12.39756777691429       -6.62443820956211        1.67145524855127
H          -14.65135070960068       -7.13477792479002        2.81078756882369
H          -16.02763052271668       -4.99455229169680        3.45142105152806
H           -5.50680734484496       -5.42269898321196        0.88759690659802
H           -3.55546095303096       -3.70799479643475        0.36760842558408
H           -7.25776656124163       -1.79472960303024       -0.33884989955665
H           -2.57327964456422        0.65610851845501        0.17021608633809
H           -0.17364061366065        0.52466866194632       -0.30367246998410
