32
 energy: -6.839475376655 gnorm: 0.000766035206 xtb: 6.5.0 (97a52f5)
C            2.56189803326341       -0.53637094179225        0.18391166933353
C            1.08898192697834       -0.33333994603984        0.10013162252505
C            0.20636874567151       -1.37069894109668        0.36518011927898
C           -1.15424791682698       -1.17239952914740        0.30688671000796
C           -1.68850232977555        0.07686238701764       -0.01554109280253
C           -3.12958457770120        0.22959341394901       -0.06316662605584
C           -3.86637781179316        1.33578357275639       -0.34660332932904
C           -3.29948890768450        2.57831911913691       -0.65281759344554
N           -2.81147192480287        3.60188565329930       -0.90429815237448
C           -5.30944610340630        1.24340888003918       -0.33848250323634
N           -6.10594342642358        2.23922647307790       -0.61197069381553
C           -7.43775454924488        1.87222324922684       -0.53224566744636
C           -8.53100718937240        2.71761903974418       -0.77119362331197
C           -9.80575902606660        2.22267670696860       -0.66189283163786
C          -10.02702106814328        0.89057442709891       -0.31560593242063
C           -8.96966704958123        0.04666736768559       -0.07675107482232
C           -7.67590450013358        0.53635153016992       -0.18446542567576
S           -6.15540809152963       -0.26203486007195        0.04932354183591
C           -0.79205625838718        1.11388313604730       -0.27586450481645
C            0.56700952816442        0.91187241313311       -0.21649661576281
H            2.81675675670932       -1.59657192966634        0.18315924665571
H            2.96134780432507       -0.09583109324396        1.09790296609429
H            3.06785187253686       -0.07352033288394       -0.66396280739448
H            0.59797710318989       -2.34000531363622        0.62182197829533
H           -1.82350228916873       -1.98957301355086        0.51472700484751
H           -3.68696458344047       -0.66336317573539        0.15706179663812
H           -8.35199944623465        3.74332174386129       -1.04009305513767
H          -10.64717711558975        2.86998825961863       -0.84700441763445
H          -11.03599397043254        0.52090849214854       -0.23591131897909
H           -9.12690834807498       -0.98386091214926        0.19048302187441
H           -1.16407252264413        2.08784461835738       -0.52942019126901
H            1.24278723561751        1.72585950567687       -0.41658222001696
