41
 energy: -8.604677618292 gnorm: 0.000937594094 xtb: 6.5.0 (97a52f5)
C            2.14568066958896       -0.77053013125430        0.69265000670402
C            0.70628199855614       -0.41447998840516        0.55080343205544
C           -0.23062089517329       -1.36416412692845        0.16768327145334
C           -1.55658297619182       -1.02716675011062        0.01473864382374
C           -1.99629961215612        0.28177706728784        0.22513649594630
C           -3.40748119936367        0.59342406518340        0.07270167812460
C           -3.98021240890668        1.80841450271465       -0.13296879795089
C           -3.20582511978702        3.04745646608627       -0.36578359198357
C           -3.31165398228144        4.12926940781135        0.50605532849938
C           -2.58273201363860        5.27790013269554        0.29249036568648
C           -1.73829827142137        5.37032393235752       -0.79586125758988
C           -1.62705611629271        4.31115132309759       -1.67411420985756
C           -2.35490023812753        3.16121616066882       -1.46436443044385
C           -5.43746615788137        1.87223420787372       -0.18194772494991
N           -6.11907181485874        2.98637653046899       -0.40728562133860
C           -7.42258982083237        2.62051216976796       -0.37545665607203
C           -8.58993675734822        3.38456141350293       -0.53678534673979
C           -9.80401372166812        2.76064280031463       -0.45386084189922
C           -9.89646464946996        1.38097305349938       -0.20966703672765
C           -8.77697567887884        0.61356605919884       -0.04385258051987
C           -7.51665102211332        1.22348741971487       -0.12181748371626
O           -6.23455614584721        0.75810473019703        0.00008107453739
C           -1.04738623164801        1.22843806288518        0.61625491873898
C            0.27662892237475        0.88663847789389        0.76927281628581
H            2.27650339148506       -1.84475959885336        0.82770143165436
H            2.58876560497540       -0.27238669990607        1.55582644387362
H            2.70695160121460       -0.47244074673844       -0.19364816046669
H            0.09165690798660       -2.37569112096560       -0.01162181986828
H           -2.27112327797433       -1.77645926553819       -0.28018895678228
H           -4.08242640099038       -0.24264903054284        0.13594374474110
H           -3.97152958933210        4.05214811270457        1.35278102625295
H           -2.67261903029565        6.10663836094401        0.97556197859249
H           -1.16810534551932        6.26982777720099       -0.96115611863304
H           -0.96874528692028        4.38342575685612       -2.52430580414036
H           -2.26968907426277        2.33148873734043       -2.14472984633511
H           -8.51049379688374        4.44077292871278       -0.72260654999319
H          -10.70687667819224        3.33585123491113       -0.57734352617650
H          -10.86900247474905        0.92046348205010       -0.15172471497595
H           -8.84042940402422       -0.44281818133256        0.14564609193261
H           -1.36042437394676        2.23734350219800        0.81304189847124
H            0.99579047080919        1.63268776443255        1.06192042978227
