35
 energy: -7.294129292674 gnorm: 0.000841594038 xtb: 6.5.0 (97a52f5)
C            2.48724473211011       -0.03465789728681       -0.06707367233591
C            0.99850859759633       -0.00629598471525       -0.03986701191058
C            0.25856848827382       -1.17562923804023        0.07176159992265
C           -1.11659405209027       -1.13935395113185        0.09490073131976
C           -1.80576621321787        0.07091448527769        0.00471427201133
C           -3.25268447646463        0.05840044622883        0.03457237539023
C           -4.06399040219041        1.11951492857030       -0.10954682188250
C           -5.51367790738211        1.09187332346503       -0.07672402825908
C           -6.20598023987780        2.30518910641890       -0.11217173360378
C           -7.58000666029713        2.34834953390614       -0.08220590832209
C           -8.30759973914443        1.17607277592338       -0.01825179534350
C           -7.65427238367583       -0.03409016134442        0.01200554888892
C           -6.26942424855256       -0.09884439497507       -0.01806816859490
N           -5.64405174324985       -1.39746003937771       -0.01126063291299
C           -5.39402557594950       -2.14908793783293       -1.13935511694829
C           -4.70279686898408       -3.25939716432095       -0.67773167747332
O           -4.25799975861062       -4.18601470621373       -1.39216530216325
O           -4.58622980820117       -3.13011565884040        0.69327043523760
N           -5.19332672089192       -2.00693821193194        1.06131236709983
C           -1.05704986072332        1.24341586193923       -0.10777829991804
C            0.31895815469784        1.20028342336970       -0.12892560264573
H            2.86836325146552       -1.05008461201297        0.04344286651672
H            2.90105726551575        0.56618896294365        0.74328527328392
H            2.86476075875824        0.36292656753854       -1.00953957585438
H            0.77263572578627       -2.11873402065926        0.14154180949466
H           -1.67938586053381       -2.05295725054491        0.18253561562028
H           -3.69605553327008       -0.90427485081041        0.19339009357050
H           -3.61565293913700        2.08451613222216       -0.25770476412477
H           -5.64534237077902        3.22290375931554       -0.16135046057456
H           -8.09031679141823        3.29712441741135       -0.10808484536067
H           -9.38441822784177        1.20968012510933        0.00597857438154
H           -8.21208392807191       -0.95326415562680        0.05736576431310
H           -5.64988903679532       -1.90629089645555       -2.15318817222004
H           -1.55705709633451        2.19295956590796       -0.17152230590423
H            0.88524146948493        2.11193771657330       -0.21423143069608
