45
 energy: -9.486427047310 gnorm: 0.000504456076 xtb: 6.5.0 (97a52f5)
C            2.19702670551008       -0.43457515224455       -0.56692956987441
C            0.71728863160084       -0.31585641048081       -0.45028875180364
C           -0.04258845345017       -1.36690154488990        0.04425475201347
C           -1.40619724856067       -1.24627527905385        0.18391985179183
C           -2.06189854148862       -0.06330524263601       -0.16037114915698
C           -3.49481876616078        0.02378918196682        0.02200094278389
C           -4.27052790962602        1.08719971880396       -0.24743610519925
C           -5.70241211264378        1.16537396686211       -0.03322356359486
C           -6.34080380303670        2.39554424501719       -0.20869093186609
C           -7.69371599348694        2.53582998949477       -0.00673731984813
C           -8.45271978265219        1.44836857894526        0.38034471992494
C           -7.85407763840339        0.22229096874742        0.55298859682641
C           -6.49275576790279        0.05693947024222        0.34153931521670
N           -5.93335035998025       -1.26443804609182        0.46650391474188
N           -5.44987638586274       -1.71816176248746        1.59837712182276
O           -4.89743658997995       -2.90971035330461        1.39482629431436
C           -5.06852221486289       -3.25911531849034        0.07092590730878
O           -4.68311980663378       -4.30322564689524       -0.47585487228740
C           -5.75463159206309       -2.19438426510967       -0.56500035156574
C           -6.13401939322130       -2.11379260435384       -1.94960657569112
C           -6.79780142465862       -0.99873504775506       -2.47435997661976
C           -7.15477131696725       -0.94194150881873       -3.79993612966797
C           -6.86117778107427       -1.99533836733023       -4.64384798600216
C           -6.20617743800785       -3.10762306892414       -4.15213856841707
C           -5.84786562251085       -3.16605850342721       -2.82691025481410
C           -1.29287757191715        0.99185682117498       -0.65382667201296
C            0.07135314980408        0.86471266814429       -0.79104116602379
H            2.49524738375711       -1.46539322497033       -0.76015303515876
H            2.68380008456904       -0.10970515257283        0.35310321498125
H            2.57760117186904        0.17873170850913       -1.38418894628453
H            0.44869603178730       -2.28322729313708        0.32316956447545
H           -1.98526571960713       -2.06938024333870        0.56629363903763
H           -3.95625720421578       -0.85239647991973        0.43207454342819
H           -3.80334590351290        1.97328488362585       -0.63576259523157
H           -5.75400872231278        3.24882998000146       -0.50284592188817
H           -8.16226428212518        3.49618510265907       -0.14611037614819
H           -9.51216337061326        1.55987800920909        0.54280260332990
H           -8.43863044726188       -0.63399069555272        0.84105743481686
H           -7.03165000331279       -0.17395124293518       -1.82980066057969
H           -7.66505633495269       -0.07314991535715       -4.18244169415906
H           -7.14235254965354       -1.94933027972031       -5.68309171303931
H           -5.97697903823398       -3.93070357656211       -4.80889488759239
H           -5.33896174143008       -4.03161863143861       -2.44267104886928
H           -1.76729887215432        1.91703917704105       -0.92696211107759
H            0.65368454562978        1.68984038736082       -1.16382948236608
