38
 energy: -7.751123575529 gnorm: 0.000589822537 xtb: 6.5.0 (97a52f5)
C            2.41492986662850       -0.09644035322944       -0.14554007724494
C            0.92692866068070       -0.05858139755888       -0.09774670949656
C            0.18575651912452       -1.20573154843345        0.15178715998785
C           -1.18851652478863       -1.15964891982299        0.19979881637988
C           -1.87474646316744        0.03913708355766        0.00016103269277
C           -3.32030456882593        0.03888231956631        0.06564225384284
C           -4.13019494045951        1.09119219727463       -0.13934727066070
C           -5.57852497400702        1.07352131024256       -0.06440789594171
C           -6.26790248740930        2.28632115391258       -0.14420605232648
C           -7.64021337768162        2.33662167190682       -0.07175074345306
C           -8.36851518828747        1.17277260790730        0.08047936582176
C           -7.71798956821702       -0.03708701506614        0.15446512808352
C           -6.33511689631007       -0.10887870558117        0.08263407951161
N           -5.71092005635173       -1.40664260972301        0.13643150000657
N           -5.27135032769560       -1.98040894309439        1.23287060104220
O           -4.66125182241582       -3.11670469830784        0.91231096326145
C           -4.75532218188746       -3.29373242115614       -0.45472023553725
O           -4.31471082550512       -4.24982770684815       -1.13201451058152
C           -5.43071030509004       -2.18768649341432       -0.97146967279249
C           -5.76909999949962       -1.91698124713565       -2.37575292762789
C           -1.12499354840529        1.18946920749877       -0.25013649509639
C            0.25007557017106        1.13645616084198       -0.29647154102080
H            2.79187916330813       -1.11139279145187       -0.01740100770288
H            2.84330352483803        0.52090756811222        0.64460627969669
H            2.78193237492553        0.27674956876877       -1.10208630682932
H            0.69807864188310       -2.13906433586255        0.30982269219287
H           -1.75299645578117       -2.05590482165656        0.39255359745823
H           -3.76364918016572       -0.90546307190149        0.31087467492407
H           -3.68253038565875        2.04042026702891       -0.36935127206944
H           -5.70614769929796        3.19738142339222       -0.25972715090484
H           -8.14824882774691        3.28508052892610       -0.13111708088205
H           -9.44379247183481        1.21232750021027        0.13941395685919
H           -8.27583749661327       -0.95022952464979        0.26829284849923
H           -5.15664583830131       -2.52343522464996       -3.04353569775600
H           -5.60137244432181       -0.86770987595861       -2.61951140001208
H           -6.81613254111695       -2.14803374728161       -2.57220521498166
H           -1.62333694084551        2.12933312850025       -0.40473573799939
H            0.81754001612421        2.03088175513126       -0.48869994934356
