80
 energy: -13.193332008608 gnorm: 0.000314359953 xtb: 6.5.0 (97a52f5)
C            0.80050355911387       -0.33219182157004        0.06047336641639
C            2.33096008312885       -0.19015852336154       -0.07366174868531
C            2.79071793945427       -1.02173581145515       -1.28023451538732
C            2.64496609638884        1.29303975588324       -0.34842612916002
C            3.00642726926002       -0.65306871967260        1.27647213360817
C            4.45687464282589       -0.13324285629218        1.53016301603933
C            5.55616150707236       -0.98609837685774        0.87099470493067
C            5.39443506634957       -2.43445486492686        1.22625899299359
C            6.37409028269752       -3.15233852260442        1.77356181238993
S            7.97203580339124       -2.50847231087246        2.14258756567001
C            8.84336300060739       -4.01836325046602        2.31494387884419
C           10.13164633277220       -4.04122691862609        2.66297380205605
C           10.94914579686093       -5.23619325460407        2.83410787238916
C           12.30789082709779       -5.10391773482297        3.12840417604528
C           13.10872597114221       -6.20846916888052        3.29622318526704
C           12.58886340074047       -7.49934552114924        3.18099632138348
C           13.46967373623482       -8.64769982195896        3.35360357941481
C           13.09339295277116       -9.92710934214304        3.31440660751110
S           14.23790454681209      -11.24231621595709        3.48148126422764
C           13.19538567199278      -12.55011139264345        2.91302711381727
C           12.72752688406987      -12.66136131352538        1.67058770506746
C           11.78881023370347      -13.76698157204891        1.28452238836872
C           10.47792431446965      -13.19104273083103        0.71671670463846
C           10.67660264859127      -12.13896547273661       -0.42171902932207
C           10.83288946323116      -12.71925138326880       -1.88136644750866
C           12.24825673899132      -13.24621910518570       -2.15905491644330
C            9.82640110886162      -13.86272297714418       -2.11303334630042
C           10.52075260501251      -11.60174279400209       -2.89838161464963
C           11.75225681370797      -11.07717109044124       -0.02820227924126
C           13.03902742910329      -11.66918811885307        0.58942929947483
C           11.22944739320424       -7.63281141197825        2.88838218580503
C           10.42840506336713       -6.52719856400643        2.71867940146939
C            4.04307286250333       -3.03251133736678        0.95526374849313
C            2.90212130043815       -2.18458123376075        1.56270121829869
H            0.29916497534191        0.01929274816435       -0.84125339519875
H            0.42421068183296        0.25442768377949        0.89833831124177
H            0.50472747197847       -1.36858315264845        0.21510277017245
H            2.34826799139590       -0.63756417908891       -2.19956928304281
H            2.47865209679996       -2.06044321558856       -1.18503960236121
H            3.87089583368411       -0.99152654183947       -1.40227020581289
H            2.06516143388544        1.66009822534683       -1.19537386779063
H            3.69652046257818        1.43849988484489       -0.59299950471615
H            2.40075127723573        1.91245655013523        0.51447458675653
H            2.38846294953124       -0.15937907514190        2.04874333144696
H            4.64036871047504       -0.11514328815923        2.61239782444558
H            4.54998630531610        0.91301891212938        1.21813402996495
H            6.54940667583000       -0.63950835415273        1.18290848608147
H            5.54174805422599       -0.87011869557103       -0.21734526913107
H            6.20164447046421       -4.18209317463378        2.02052239189141
H            8.30666716146481       -4.92563456626216        2.12375773109498
H           10.61730499082653       -3.09458641400253        2.83062476849941
H           12.72796793309867       -4.11670998007258        3.22151244830812
H           14.15480668599825       -6.08505076007009        3.52022345642815
H           14.51426323407248       -8.43973454554060        3.51253994633697
H           12.06798804079599      -10.19911967303537        3.16311993797864
H           12.93210847952047      -13.28632414711730        3.64881490887867
H           11.58673933625465      -14.40325428112459        2.15593521322384
H           12.27458691981724      -14.42366501293283        0.55563651020263
H            9.92814867843993      -12.71766859088298        1.54070665714502
H            9.82312517586025      -14.00216878909386        0.37949997723946
H            9.71789503914804      -11.59086512229300       -0.47134120754365
H           12.53731279370380      -14.01699964801145       -1.44836054939593
H           12.98231678492509      -12.44307711388171       -2.12260574187705
H           12.30360136864064      -13.68501475248039       -3.15552277532812
H           10.08384015281097      -14.74462113541914       -1.52764447966508
H            9.81914218443492      -14.16467911562486       -3.16042223200949
H            8.81474031910413      -13.55480893856703       -1.84917735269132
H           11.23463382145665      -10.78285912902760       -2.82760368039056
H            9.52258683465836      -11.19438785504566       -2.73943967497243
H           10.56390971296073      -11.98384445565037       -3.91823540538042
H           11.31363472438654      -10.37190544867205        0.68858813626221
H           12.00906628227057      -10.46755873654488       -0.90186727680797
H           13.67327919178324      -10.87027050974488        0.99239387641854
H           13.65377095909487      -12.15719034360762       -0.17360458230022
H           10.80153451210836       -8.61456001976749        2.78925870379537
H            9.38443005129062       -6.66042084441662        2.49670879670196
H            4.01029691406462       -4.05415519656291        1.35536652814350
H            3.91582533047963       -3.14771454847512       -0.12586436476396
H            2.88858409094457       -2.34568892642810        2.64804792210334
H            1.93551355886863       -2.56082194877163        1.20881118260091
