53
 energy: -10.866138512533 gnorm: 0.000793442564 xtb: 6.5.0 (97a52f5)
C            2.46187213403199       -0.39410096340450        0.74260682294009
C            0.98538380565969       -0.24095410814889        0.61843048527026
C            0.12739489923361       -1.19099464991324        1.15456227813165
C           -1.23869801024464       -1.04029138084070        1.06453123653675
C           -1.79870190251572        0.07339557368863        0.43686347995383
C           -3.24384947443615        0.19818443378791        0.35264749517707
C           -3.91220815230905        1.20083395420907       -0.23733557541936
C           -5.35087600916790        1.25239777732637       -0.26619886745628
N           -6.14278374461055        0.40086867413452        0.41889630248798
C           -7.39500980507424        0.80768334605372        0.22500664456704
C           -8.56386052760691        0.14824718135287        0.80018699140749
C           -9.85413221983310        0.62607929985754        0.57663746695474
C          -10.94499851432142       -0.01257307770684        1.12445842534335
C          -10.76894616768265       -1.13818624049199        1.90550247185990
C           -9.49706654885303       -1.62468489288949        2.13751846014892
C           -8.40503400078144       -0.98818134103734        1.59030013702742
N           -7.43937802098438        1.92659099230786       -0.58719929432822
C           -6.15217562378358        2.21758608629667       -0.93540196508804
C           -5.76643481890235        3.28122812257375       -1.82916286324728
C           -4.63952650156150        3.29697681869234       -2.56452403631937
C           -4.23071074042283        4.36460129026206       -3.46058288692106
C           -3.07435107427400        4.21435490021132       -4.22834305566418
C           -2.65391656014871        5.21099117885125       -5.08085210607693
C           -3.36546999121223        6.39720301494978       -5.19468838872729
C           -2.92062847309995        7.46643863048541       -6.13148445753028
C           -4.52111543236470        6.54974868690203       -4.44133917767168
C           -4.94702139193915        5.55647691640252       -3.58692463578231
C           -0.93060900665551        1.03009016054399       -0.09224133480752
C            0.43494294009577        0.87387377180657        0.00134071144836
H            2.75297363538591       -1.44457218473420        0.70142166270943
H            2.81491732932306        0.01604523924247        1.68963304342149
H            2.98180917910171        0.12474067115073       -0.06377606350321
H            0.54385000305527       -2.05389069309129        1.64624528902705
H           -1.89062507644610       -1.78840427748653        1.48244726720097
H           -3.82533410899427       -0.58734831669797        0.80053768908428
H           -3.36863082354660        2.01878292606489       -0.66737449815252
H           -9.99533516546659        1.50258519677534       -0.02994388434416
H          -11.93749470628702        0.36735346113925        0.94354414602016
H          -11.62362568110370       -1.63650389054422        2.33315639481076
H           -9.35849373993907       -2.50328582704467        2.74620232979072
H           -7.41169509326571       -1.36340300155988        1.76539092679569
H           -8.26897230503288        2.41653224534968       -0.91975253534750
H           -6.46917407680080        4.08659240926013       -1.93685369820725
H           -3.99862035306496        2.43527403935835       -2.53167892483215
H           -2.50852215568209        3.30172831463109       -4.14854606369801
H           -1.76265752298551        5.07584988010990       -5.66988530788718
H           -1.83905651840512        7.44301344555598       -6.27101777751407
H           -3.18333583903096        8.45530334014805       -5.75316365078490
H           -3.38901237046776        7.34464919591347       -7.10893861672792
H           -5.08648626563409        7.46183889244537       -4.53115337092975
H           -5.84010774718843        5.70714301309250       -3.00726872024206
H           -1.32973046354624        1.90208741326163       -0.57878662909783
H            1.09163879982643        1.62407435139875       -0.40566977179026
