31
 energy: -6.326073541747 gnorm: 0.000861339314 xtb: 6.5.0 (97a52f5)
C            2.47053127051138       -0.08670077367920        0.07432417627357
C            0.98290308655859       -0.02669467342781        0.03392010380219
C            0.21399517166096       -1.11287686130997        0.42788539372361
C           -1.16136473825281       -1.04682739118604        0.41405428034307
C           -1.82093949529562        0.11453560362868        0.00900139609867
C           -3.27234767789160        0.14803726736900        0.00466637323908
C           -4.03900793502701        1.18062191059531       -0.38701218569300
C           -5.46772093810588        1.14396592852548       -0.36805600748814
N           -6.21966017715363        2.13917547768365       -0.75554278562804
C           -7.56541272975145        1.83713966901717       -0.63366223419047
C           -8.62711967015001        2.69485780655442       -0.96000938328876
C           -9.92004926602537        2.26926771524524       -0.78662934444045
C          -10.19165347844532        0.99551165807792       -0.28839280025574
C           -9.16719138558346        0.14055828314168        0.03992579006595
C           -7.85513335366802        0.55992079181803       -0.13179534461099
S           -6.36818774354193       -0.27567680787579        0.18881175130572
C           -1.04220693338146        1.20618653080248       -0.37811367783933
C            0.33329131668205        1.13400412637863       -0.36183622484836
H            2.82661177803645       -1.11560378933448        0.00739362473466
H            2.84957565791154        0.34121647852192        1.00329301122829
H            2.90774274206841        0.46913983844845       -0.75621989830732
H            0.70674221204540       -2.01498921329065        0.74850840590567
H           -1.74375561188875       -1.89932867167399        0.71946137502979
H           -3.77362250141009       -0.74007800035915        0.34549200972494
H           -3.58049257824977        2.08532941437267       -0.73928495163534
H           -8.41149689948888        3.67530628659778       -1.34574357608417
H          -10.73651923068089        2.92618606574304       -1.03809251839686
H          -11.21388987257879        0.68002489419910       -0.15920762430328
H           -9.36291430790101       -0.84463862988141        0.42650748731224
H           -1.51940852494341        2.11714773614453       -0.69193725303200
H            0.92125181393984        1.98597132915521       -0.65833936874657
