83
 energy: -16.203596364444 gnorm: 0.000513401126 xtb: 6.5.0 (97a52f5)
C            1.45449986810714        0.06924346450020        0.23908821166580
C            2.92570552976754        0.10576692746368        0.00638608533707
C            3.58503545132772        1.30695519269787       -0.21569533480205
C            4.94388764087072        1.33430221080232       -0.44879847725433
C            5.68602483155739        0.15712242148866       -0.47185040874310
C            7.07139173125227        0.18142047329814       -0.70906785813816
C            8.27912338222420        0.19711102179753       -0.92102284208516
C            9.64864292969138        0.20524070612801       -1.17189169554058
C           10.38256807701766       -1.00878568632973       -1.15352851150803
C            9.75765635124747       -2.23008216428286       -0.87982937418380
C           10.46149672665789       -3.43112020827650       -0.85884729416645
C            9.82874304188029       -4.67290510262306       -0.58251222203182
C           10.54372847712786       -5.82859992061429       -0.56982847057177
C           11.92764902845715       -5.81919788316246       -0.83029038190772
C           12.57300983826235       -4.65432423314920       -1.09998136656464
C           11.86528373344452       -3.42210677939330       -1.12398993925363
C           12.49690445097884       -2.21353638802747       -1.39750692372283
C           11.79850936809657       -1.00022228230707       -1.42089959025273
C           12.46079974398194        0.21806294424672       -1.70433178033938
C           13.83591940345559        0.22238815485153       -1.98064079768498
C           15.02434456700773        0.22128205411945       -2.24417576563932
Si          16.75202832761731        0.22659051843903       -2.69567314371114
C           17.66320491779743        1.27787020212974       -1.38821171627911
C           19.17746103719766        1.18873683951746       -1.44535999361488
C           17.16916046246916        2.71325840628261       -1.42788203712631
C           17.29722872637857       -1.59953711151209       -2.65108674031068
C           18.59351469889953       -1.87371682632935       -3.39199021874730
C           17.32240896329430       -2.10929963526819       -1.22103484407187
C           16.90391786892144        0.90588718999741       -4.47443875420334
C           15.82424982633366        1.93768327400646       -4.75519524867540
C           18.28928771943542        1.42622806770684       -4.81125146355511
C           11.73101099203071        1.43063003037721       -1.71897499063796
C           12.36148347947910        2.64981709652280       -1.99544185551765
C           11.66226138361616        3.85176459876001       -2.02050034189559
C           12.30048434183392        5.08944474581211       -2.30435883628062
C           11.58989037135492        6.24741967016636       -2.32233617049434
C           10.20613197979949        6.24382813942041       -2.06071336799913
C            9.55623397525836        5.08249009642134       -1.78518179925050
C           10.25850728784028        3.84775611003940       -1.75503287603774
C            9.62231087117568        2.64115051609681       -1.47624815667634
C           10.31512740611918        1.42616072607351       -1.45091340265365
C            5.02115510747860       -1.04657757764482       -0.25738703855118
C            3.66234197609066       -1.06967456199310       -0.02430339686867
H            1.07373691682875        1.04991962157858        0.52784107869788
H            1.20198694600109       -0.63178977456711        1.03601876788391
H            0.92697752174383       -0.24312096829881       -0.66331750086717
H            3.02199606048930        2.22475947369559       -0.20540954910920
H            5.44738630660317        2.27112216401510       -0.61759027330946
H            8.70204288677581       -2.24411170334203       -0.68003182685709
H            8.77080212623667       -4.68389370910188       -0.38367169945439
H           10.05078560332871       -6.76370153158665       -0.35908745718682
H           12.47617818748704       -6.74697817807979       -0.81564425644060
H           13.63068204551880       -4.64990275488756       -1.30030010843155
H           13.55301748992626       -2.21327802005822       -1.59597716974749
H           17.30995812635947        0.80320684137289       -0.46047787596347
H           19.55953769323557        1.59274123135029       -2.38203958248219
H           19.52758536957976        0.15996717628908       -1.36072981964208
H           19.63710916003490        1.75886168676468       -0.63589264763205
H           17.51312904536363        3.21736529350478       -2.33114061071711
H           17.53662918871651        3.28676044270662       -0.57469075104572
H           16.07861504251479        2.76004526363323       -1.41928976175662
H           16.46716876979108       -2.07980425515929       -3.19106050199914
H           19.42975389830242       -1.35302464418960       -2.92676539507269
H           18.53953810375494       -1.54983404014864       -4.43232557543887
H           18.83276644727687       -2.93874643117320       -3.38998781441523
H           18.12739059792377       -1.63956662761100       -0.65515195867995
H           17.48242556110036       -3.18856281271560       -1.18352441765987
H           16.38641673823750       -1.89008424552411       -0.70352545998889
H           16.70013506309340        0.00139517000519       -5.06665174405927
H           15.96919764937076        2.82688840393875       -4.14121343234089
H           14.82891962334097        1.54756074860278       -4.53512348250702
H           15.83591466825783        2.25414236544069       -5.79984439659813
H           18.49872379040714        2.34825775283255       -4.26911577118127
H           18.38147256625726        1.65058973699304       -5.87562767193603
H           19.06702784895464        0.70612117526476       -4.55457868583392
H           13.41707700623037        2.65942106402602       -2.19616734993373
H           13.35790659348003        5.09496854505618       -2.50600513353712
H           12.08577174922788        7.17950269845911       -2.53954645733016
H            9.66101677671791        7.17347876525834       -2.08150833326414
H            8.49811021467654        5.08342593862815       -1.58696416525310
H            8.56669975661701        2.64534430570969       -1.27587537113412
H            5.58454919631003       -1.96408246183673       -0.27740948830366
H            3.15828577115453       -2.00759914506761        0.13638478118375
