32
 energy: -6.907902799477 gnorm: 0.000595265595 xtb: 6.5.0 (97a52f5)
C            1.17393854512930        0.08701733922371        0.26050015065363
C            2.63528870248843        0.11764352761857       -0.02510414682210
C            3.31193849022819        1.31917856593173       -0.17583002422525
C            4.66224362217589        1.33897309686557       -0.45139127326404
C            5.37660097646475        0.15516955392117       -0.58787645704964
C            6.75717138201200        0.17323483389940       -0.87036437719148
C            7.95505498350753        0.18724079150803       -1.10903016978316
C            9.32957792326572        0.19070456882229       -1.38122445814506
C            9.99419130143101        1.35039156093586       -1.55900409104994
C           11.38658757505255        1.36298556540255       -1.83994157583638
C           12.10181928996758        2.55173608092882       -2.02659804031214
C           13.44458453769891        2.52205681627053       -2.29608463217226
C           14.11083635117531        1.30608091740895       -2.38798821339889
C           13.43098590302315        0.13172681678367       -2.20920688934988
C           12.05840138364355        0.12982089503460       -1.93106720114155
O           11.40484616750647       -1.07929122096232       -1.75396498907760
C           10.05162663345478       -1.08624016837585       -1.47589766226220
O            9.43403243802577       -2.12872592915501       -1.30547020800990
C            4.69683903757010       -1.04760947392705       -0.44162200299442
C            3.34651930017638       -1.06405721807484       -0.16610421773702
H            0.79218813369024        1.08247820291335        0.48839194746105
H            0.95872187894408       -0.55435718626003        1.11562702051437
H            0.62044295528489       -0.29542916437268       -0.59750451316153
H            2.77045049687467        2.24421884954123       -0.07694039317422
H            5.17954229539249        2.27620706848793       -0.56561161950849
H            9.46332711864630        2.28284531143486       -1.48943349724076
H           11.58271867384122        3.49193556232406       -1.95588624495467
H           13.98625906609577        3.44278756335631       -2.43712423054949
H           15.16698767810772        1.28893766805837       -2.60142121077045
H           13.93846424810230       -0.81398231580053       -2.27868882929355
H            5.24131186004733       -1.97017368503572       -0.54891025960349
H            2.82962105093785       -2.00225479469599       -0.05882769058494
