54
 energy: -12.907097431682 gnorm: 0.000994608247 xtb: 6.5.0 (97a52f5)
C            1.37242250511560        0.12533760005444        0.71626436882632
C            2.81436276053673        0.10695079838096        0.34475549008201
C            3.47719626612967        1.27696618792561        0.00596282504689
C            4.80418145154081        1.25435090407034       -0.36654248910020
C            5.50768187950653        0.05727015916985       -0.41672785971837
C            6.86128706506491        0.03142438580613       -0.81311743037329
C            8.02330215438254        0.00990546555408       -1.18758792939900
C            9.34827190710508       -0.01288802402534       -1.66650366117716
C            9.98460010210220        1.18081341397412       -1.98690921517740
C           11.26691230941485        1.19204111581888       -2.48531157072024
C           11.96213660195976        0.00438266588434       -2.68217282439160
C           13.26305801630274        0.01304844257032       -3.22421122009695
C           14.37000398613623        0.03899086781728       -3.73958518445200
C           15.62192255433090        0.09464786239225       -4.38274164514996
C           16.13105161477602        1.32493407782984       -4.78303174836326
C           17.33743261306888        1.41755790524089       -5.43793089462052
C           18.08117111038729        0.27742437239977       -5.71828401071503
C           19.30578414976723        0.36352633628175       -6.41115935074739
C           20.34932392891180        0.44130229254780       -7.04016242407638
C           21.53641416092876        0.54480006014433       -7.79368474348104
C           22.03490450945626        1.80178716102359       -8.11661939604156
C           23.18679831860823        1.94041963576870       -8.85844422076793
C           23.86465231565137        0.82068274836753       -9.29328965356600
C           23.38950914383184       -0.43359506238479       -8.98419328984060
C           22.22924187480196       -0.59419633741312       -8.23633843917011
C           21.77840178600859       -1.89173177632530       -7.94319546096271
N           21.41590551663647       -2.96881700033971       -7.70622759511136
C           17.58208084018241       -0.95181976810530       -5.31364271799309
C           16.36792564581570       -1.06465016977342       -4.65104398028053
C           15.91537644930332       -2.33973074335443       -4.27364999603689
N           15.55079939123116       -3.39977392663776       -3.97232324553447
C           11.33536732163839       -1.18871594947432       -2.35415890942970
C           10.04320339270979       -1.21969597519940       -1.84893512835954
C            9.46033161806558       -2.46016269150156       -1.54090209497694
N            8.99068465895293       -3.49035180373432       -1.28472374507367
C            4.84015708595338       -1.11451317157101       -0.08373728129791
C            3.51353016502053       -1.08904563125820        0.28858570637741
H            1.08225146934307        1.09407433108206        1.12311506930362
H            1.15297619430299       -0.62950374945096        1.47168855941553
H            0.74750469630951       -0.07589586035564       -0.15409829165226
H            2.94168407360073        2.21037970480863        0.03294065696116
H            5.30992701067904        2.16797688961384       -0.62857884659665
H            9.45224517361927        2.10596808982956       -1.84555244415286
H           11.74443826477748        2.12357612572067       -2.73652169224296
H           15.55937543698596        2.21357604697581       -4.57692544031455
H           17.71647677574726        2.37681483641295       -5.74612935016248
H           21.50245154058717        2.67422291250497       -7.77778915055036
H           23.55776198337292        2.92287921178174       -9.10040491097892
H           24.76530313467885        0.92813636841579       -9.87539884060242
H           23.91565897666022       -1.31050097760330       -9.32156276272704
H           18.14778818444654       -1.84190222112338       -5.52320531335265
H           11.86098214065744       -2.11513213547430       -2.50082143365075
H            5.37334440244130       -2.04844383201815       -0.12619509047613
H            3.00619337061104       -2.00545216918275        0.53685024758269
