32
 energy: -6.912247407814 gnorm: 0.000710916218 xtb: 6.5.0 (97a52f5)
C            1.18587400666361        0.12567112682627        0.37466607194530
C            2.64682737518744        0.14272492384443        0.08701157249251
C            3.33543952971199        1.33774898621112       -0.06110039421814
C            4.68576881842199        1.34449691453741       -0.33878260856516
C            5.38798661871564        0.15387850341481       -0.48000579481743
C            6.76997261319469        0.15803516850857       -0.76442167707303
C            7.96653526808878        0.15914629101342       -1.00653384887831
C            9.34868286287626        0.15819112912185       -1.28292817110495
C           10.06278335057257       -1.04462198301952       -1.34026599718704
C           11.40561785887367       -1.05049523459746       -1.60827366836061
C           12.09330699523459        0.14688995286103       -1.83096554232494
C           13.48893275532932        0.18515573235788       -2.11238363218496
C           14.10155663271555        1.35680434356212       -2.31491193849572
C           13.37358653281864        2.60988691461423       -2.25546918948638
O           13.98612610775261        3.65300624608675       -2.44468739358877
O           12.01934862946056        2.58696172863337       -1.98789173206749
C           11.39318704408178        1.36655171612055       -1.77739707617573
C           10.02225286616985        1.34173773144763       -1.50199439786302
C            4.69591067802722       -1.04229667072949       -0.33593716399718
C            3.34570101957819       -1.04573049154389       -0.05815594913708
H            0.81323660838282        1.12494405447413        0.60157534633085
H            0.96632069349561       -0.51256093042285        1.23116689924638
H            0.62779593081713       -0.25336997598586       -0.48205777798312
H            2.80356022127697        2.26795253851360        0.04189064773057
H            5.21256819602432        2.27672918694332       -0.45036649700532
H            9.53836571618403       -1.96913437264373       -1.16996378905732
H           11.94591371352025       -1.98044317771944       -1.64974328286776
H           14.03907869797568       -0.73880966049729       -2.15849340681652
H           15.15445767094829        1.40095407107405       -2.52633563855730
H            9.48903341514874        2.27362691866139       -1.46273376808320
H            5.23012366574448       -1.97048481797325       -0.44580392864199
H            2.81943790700015       -1.97888686370629        0.04796372673145
