44
 energy: -8.157293904276 gnorm: 0.000458860487 xtb: 6.5.0 (97a52f5)
C            2.22856207107765        0.68939174876443        0.70037843261199
C            2.89497474280150        0.94256709662046       -0.65874602687125
C            2.37793996849509        2.27669810643265       -1.22071101031481
C            4.41430622542405        1.02506968480103       -0.47048667538667
C            2.54944251965561       -0.21017554240077       -1.65069137316137
N            2.98262789768849        0.12616549984979       -3.01720237963081
C            4.26048047741609       -0.17371533221058       -3.45235165660309
C            4.86284362777344        0.52638000017045       -4.50197764621358
Br           3.90782765530360        1.91148315274329       -5.34941358609381
C            6.14541836980078        0.22242654779386       -4.89385374581652
C            6.85409360603566       -0.78342411645726       -4.25318106395911
Br           8.61492798869233       -1.19658367490965       -4.79755856228089
C            6.27559998945683       -1.48531205331420       -3.22193525981280
C            4.98284350407170       -1.19340857909379       -2.80349548149924
C            4.32952757186366       -1.98104448431706       -1.74952255514463
O            4.83521320785393       -3.02888770231836       -1.36891537806309
N            3.11659984269617       -1.52159079188958       -1.22647017304270
C            2.26942223729164       -2.46914244126257       -0.48472153307177
C            2.55025249721553       -2.51941380403748        0.98337388316939
C            3.84803337127043       -2.66500647350572        1.44202762047206
C            4.12418345194074       -2.69422458820736        2.79232859610026
C            3.09680838907295       -2.58566669967082        3.70560027784153
C            1.79663775859076       -2.45354452181071        3.26437484146450
C            1.52442732491773       -2.42351633787705        1.91196377309979
H            2.37419287626553        1.53712006611940        1.36891717538441
H            2.65910214844682       -0.18247177611568        1.18519856974243
H            1.15684950863371        0.52936581532056        0.59019244450729
H            2.54926555831036        3.08741895960291       -0.51353063542533
H            1.30851490120418        2.22725693935986       -1.42195663798949
H            2.88782263847481        2.53713407682330       -2.14695678234249
H            4.67789504309002        1.80981630780073        0.23759921807799
H            4.91246679937918        1.24353289677863       -1.41363189225286
H            4.80808159607263        0.08291347017196       -0.09188599742582
H            1.45798244097000       -0.32148039712030       -1.67199501058688
H            2.45775917596644        0.87661837918049       -3.46088387324500
H            6.60387106747149        0.76980735527708       -5.70088442741633
H            6.82172747695357       -2.27805583786317       -2.74047829919274
H            2.42806515850461       -3.46168177853859       -0.91592154478848
H            1.21945372003592       -2.22288006267945       -0.66200476576391
H            4.63901956789142       -2.75998283686327        0.72000377137343
H            5.14091192439453       -2.80269020156683        3.13249280639612
H            3.30918808644013       -2.60738024508238        4.76198183741124
H            0.99214211582568       -2.37287684395807        3.97681893583049
H            0.50966389926118       -2.31879898052283        1.56840178991184
