41
 energy: -9.039577843260 gnorm: 0.000799829935 xtb: 6.5.0 (97a52f5)
C            1.25098210546890        0.21402663714975        0.32735331721943
C            2.71589585414084        0.20782332174831        0.05588088678301
C            3.42519599154345        1.39214854481469       -0.08590187192852
C            4.77887496020891        1.37732153447542       -0.34942820345688
C            5.46441371509494        0.17477759184295       -0.48200304088217
C            6.84930791063956        0.15690541231512       -0.75175558633295
C            8.05108193716631        0.14986744267203       -0.97530019726443
C            9.43329383703092        0.15845812352891       -1.23638580823608
C           10.11970276753857       -1.04812590812678       -1.35350230054550
C           11.47109377766959       -1.08888354368683       -1.60864438352891
C           12.20619311731200        0.08849027477486       -1.76123267685282
C           13.61131256356532        0.08094539952746       -2.02710783631331
C           14.30333639373637        1.23247208334852       -2.17630087513198
C           13.65578574124561        2.50408445265611       -2.07425781792993
C           14.34608690895049        3.70747479257240       -2.22979758967808
C           13.68940876272719        4.91641611781918       -2.12571720026679
C           12.33537991471491        4.96336274093539       -1.86489497415557
C           11.59870870467990        3.78891263297720       -1.70105134075508
C           10.19433851629827        3.79758798994935       -1.43070673736206
C            9.50355819585395        2.64574849684897       -1.28054989923053
C           10.14255812651524        1.36983696983421       -1.38485198894387
C           11.53457828875873        1.32933327205246       -1.64948225313247
C           12.26503364269493        2.54397001003221       -1.80757364337098
C            4.75092215346583       -1.01077311498942       -0.34419586416703
C            3.39743069923957       -0.99229790786386       -0.08073182923741
H            0.89056576226808        1.21957861409664        0.54774684744819
H            1.01114017704835       -0.41920844921970        1.18257053013275
H            0.69593707918075       -0.15869019403151       -0.53451485401732
H            2.90619660192666        2.33049238311708        0.01060521931282
H            5.32172374360923        2.30102403243120       -0.45652814256775
H            9.56756276847768       -1.96563543140110       -1.23984777031797
H           11.97653834845057       -2.03534831611197       -1.69414584413226
H           14.11395254876310       -0.86743653282066       -2.10724837098086
H           15.36055788145152        1.20802857015340       -2.37646931537836
H           15.40265466908457        3.68106324750645       -2.43380922728170
H           14.24029318786204        5.83446977350986       -2.24996390595191
H           11.83166372285973        5.91131108843830       -1.78563041570020
H            9.69175102405679        4.74574907069496       -1.34802356868070
H            8.44737874391944        2.67417805984045       -1.07762981113991
H            5.27196641611488       -1.94731707196135       -0.44806142220941
H            2.85437273867816       -1.91663221137770        0.01976976615592
