53
 energy: -11.707668472482 gnorm: 0.000805522976 xtb: 6.5.0 (97a52f5)
C            1.15460230871536       -0.03683952917967        0.14167180859510
C            2.62628019455035       -0.02248669662940       -0.08768495201197
C            3.32278352866607        1.17162986804696       -0.20867972310961
C            4.68310992883887        1.17561753673335       -0.43315036418983
C            5.38929620321342       -0.01693872430551       -0.54437147964791
C            6.77857690924236       -0.01318403377782       -0.78239979532435
C            7.98091067033168       -0.00480131984662       -1.00158489618256
C            9.35995199538785        0.01079010243218       -1.27450293377343
C           10.05126202178411        1.22215779448879       -1.40915330198372
C           11.38960600769484        1.24057733862631       -1.68747819826631
C           12.11981582354606        0.04911025244446       -1.85071903944429
N           13.44498127986698        0.12448607762699       -2.14010607245401
C           14.09847752289298       -1.01984730736958       -2.30738153915724
C           15.47548226166657       -0.97624900437733       -2.63031891648439
C           16.18745581697831       -2.11408655078494       -2.82689961923679
C           15.57402405080045       -3.38289521144855       -2.71110933777050
C           16.30717945085289       -4.56325321775874       -2.92708745493336
C           16.95113825968836       -5.58217239269876       -3.12836283470900
C           17.70104971502187       -6.74998032816338       -3.37543880225701
C           18.98491165845636       -6.67257586682279       -3.90348125362939
C           19.71724962644931       -7.81460430795758       -4.14916681487181
C           19.19030377889159       -9.06878173480662       -3.87577570430077
C           19.97451562840956      -10.30823318561191       -4.13549553038668
C           17.91093993645248       -9.14758471100131       -3.34644873001435
C           17.17597942733419       -8.00742245408548       -3.10008583952754
C           14.24605965080261       -3.42565403178760       -2.39067908468314
N           13.51377800894178       -2.28331585086610       -2.19153619243811
C           12.14602790496538       -2.41379023023548       -1.87912356817355
O           11.60477402750845       -3.50292534747036       -1.76199055846433
C           11.42400370712233       -1.17015749556496       -1.71128083445005
C           10.06493551615623       -1.16980543037280       -1.42727337644227
C            4.68949493728934       -1.21216329994828       -0.42324383021860
C            3.32907144898962       -1.21279595345146       -0.19932923169456
H            0.76634984978086        0.96952953884501        0.30139714064949
H            0.90405745629631       -0.63299705712249        1.01981281592684
H            0.63348385814352       -0.46340895933532       -0.71609755041493
H            2.78871505091228        2.10270342875830       -0.12775167428310
H            5.21482603536179        2.10698969779790       -0.52836008701234
H            9.50826633600809        2.14442188932150       -1.29301169853347
H           11.91096282831760        2.17567047001488       -1.79251093338858
H           15.94592307676291       -0.01326471248099       -2.72200357339852
H           17.23318923881595       -2.06707856036578       -3.07820648615775
H           19.40151546826327       -5.70376495858970       -4.12042109472985
H           20.70962287505614       -7.73842447231799       -4.55924337346710
H           20.93175547538412      -10.08283692198170       -4.60643938905436
H           19.42870701707289      -10.98123911921665       -4.79761358814417
H           20.17741035538024      -10.84063585016322       -3.20562309869604
H           17.49414930120805      -10.11581547748674       -3.12777284029491
H           16.18295351421017       -8.07989709152820       -2.69038755559617
H           13.74190080727365       -4.37012701396481       -2.29399444725735
H            9.55354464919234       -2.11055455649666       -1.33001045435134
H            5.22617319956159       -2.14157485530836       -0.50909885599935
H            2.79759439942082       -2.14474017245715       -0.11035525406172
