39
 energy: -7.495219694788 gnorm: 0.000418363026 xtb: 6.5.0 (97a52f5)
C            2.47289890475813       -0.20635342703644       -0.04691021501064
C            0.98660814526908       -0.11846600143241       -0.00872784697571
C            0.19950552093952       -1.18053891915994       -0.42973741655114
C           -1.17497123152735       -1.08761307274177       -0.41407883225703
C           -1.80588615516766        0.07263765757004        0.01295432990713
C           -3.29051458422346        0.12701001944050        0.02987667138392
O           -3.94047780140442       -0.90127905630800        0.11423320362382
C           -3.95257752271501        1.41883701161292       -0.06766993966220
C           -5.28529145904112        1.53101756787733        0.00648269981962
C           -6.04200523936811        2.76273362575504       -0.07874120182666
C           -7.43942731192713        2.71938717043293       -0.02842822020900
C           -8.18864858938948        3.86499369927655       -0.10434272832310
C           -7.58069692049492        5.11996157470004       -0.23427102800384
N           -8.34589189617701        6.29226616978124       -0.31300321713873
C           -9.80773359577966        6.25922062534916       -0.25132194204563
C           -7.71999773500564        7.60974803637231       -0.43401393586519
C           -6.18149613081614        5.16201905526676       -0.28405155613736
C           -5.43260771866432        4.01551659747811       -0.20844849669379
C           -1.01658536250445        1.13774455827214        0.43541450962096
C            0.35792797515194        1.04247055889948        0.41790465518800
H            2.80821293066373       -1.24335434476808       -0.00663662683609
H            2.91849940425517        0.31835188477961        0.79908612692922
H            2.86317890936795        0.23812162665547       -0.96315005849199
H            0.67464242544580       -2.08432406788176       -0.77107693267267
H           -1.78185645294369       -1.91787558512315       -0.73217431463497
H           -3.34707538737619        2.28996532667563       -0.22504505737915
H           -5.84700961329645        0.62349935042383        0.14192894734082
H           -7.92704058029288        1.76464123703464        0.07028222508119
H           -9.26116535694539        3.80084942325045       -0.06284878841787
H          -10.13113216869735        5.84355966117979        0.70104310653764
H          -10.20158053552350        5.64698795910894       -1.06023958289705
H          -10.22943613741270        7.25743407725453       -0.34755656299638
H           -7.06804710936045        7.79288334364928        0.41799099033949
H           -8.46700575373090        8.40013088602509       -0.46452958178759
H           -7.13398597968218        7.66120439612441       -1.34963843256891
H           -5.68737498596375        6.11160466411790       -0.38588215773734
H           -4.36016260425859        4.08270854819339       -0.24692654408170
H           -1.48466347296349        2.03630700613046        0.79701956242449
H            0.95996117680563        1.87500115575700        0.73995418900302
