33
 energy: -6.935546100707 gnorm: 0.000576758095 xtb: 6.5.0 (97a52f5)
C            2.39200265193826       -0.11634210148922       -0.01622854072995
C            0.90375324715821       -0.06694030361570       -0.00912119699928
C            0.14535282253706       -1.22691147283999       -0.03904660192786
C           -1.23016996251846       -1.16578809439453       -0.03378909416529
C           -1.89817460393278        0.05012016377340        0.00048346243776
C           -3.38949266454338        0.03050482559458        0.01059973545999
O           -3.94328311387019       -1.05047091221178        0.07726828575724
C           -4.12364222306289        1.28473067117277       -0.05851287171519
C           -5.46331112511744        1.49646709570877       -0.08615573059158
C           -6.62157098453664        0.55815997608337       -0.08678177164632
O           -6.63097508666888       -0.65643149044915       -0.06021984254202
N           -7.76903486324213        1.34621973851667       -0.12982241603438
C           -7.44962677275710        2.69936823203464       -0.15657912787538
C           -8.27100157488067        3.81975269156136       -0.19744769452174
C           -7.68607729053438        5.06500099548165       -0.21179856246229
C           -6.30169724601655        5.20241219042601       -0.18599877113465
C           -5.47919913836563        4.09695515697074       -0.14604482378980
C           -6.05254524875467        2.83020452061650       -0.13162425360000
C           -1.13399008653992        1.21307254717411        0.03219432177006
C            0.24241925216883        1.15062931921884        0.02533669759655
H            2.75631336668020       -1.14374231198895        0.00149480806425
H            2.80071111089175        0.39684541998664        0.85470309361247
H            2.79085888577644        0.36399328314860       -0.91009257790218
H            0.64216316789641       -2.18146932023242       -0.06561773501803
H           -1.81501352135134       -2.06961714138119       -0.05418894812983
H           -3.52189158654404        2.17169168183821       -0.09181789643346
H           -8.70837454776803        0.96878075738076       -0.14205104685532
H           -9.33956107905486        3.70104019503859       -0.21619697349032
H           -8.30770412202477        5.94465493113017       -0.24274676858738
H           -5.86682936231618        6.18822302168664       -0.19677983294445
H           -4.40991673994469        4.20787319255590       -0.12466376580450
H           -1.60917324967471        2.17577227195444        0.07036111911744
H            0.82260168897308        2.05734026954957        0.04867532108575
