36
 energy: -7.392347446196 gnorm: 0.000871749560 xtb: 6.5.0 (97a52f5)
C            2.04423816127612        1.33294487754134        0.27705768314467
C            0.71480963813613        0.66017084276983        0.23443317583958
C           -0.44061444313778        1.39880733109683        0.45039438229872
C           -1.68099939996926        0.80528303771033        0.42252714374444
C           -1.80320446859786       -0.55280740078650        0.16706860381340
C           -3.12604845618305       -1.23131127125174        0.14811016921866
O           -3.19625907338164       -2.41719553399915        0.42506987655557
C           -4.34470328105190       -0.46622753349521       -0.13767706019583
C           -4.52020186390711        0.45096986847527       -1.12072382327966
C           -3.60745525741674        0.80063154259889       -2.23764040531647
O           -2.53054640480719        0.29760265654882       -2.49189123543871
N           -4.24162701956307        1.80309775271218       -2.96681508978184
C           -5.49965285530397        2.08427442531428       -2.43617745409252
C           -6.47159292411925        2.99255935708249       -2.83975962141456
C           -7.63845691122983        3.07631727939250       -2.11454939806452
C           -7.84568513772075        2.27159822054265       -0.99801373377110
C           -6.88946284621485        1.36776846218438       -0.58764736646062
C           -5.70811160965038        1.26829495282323       -1.31223079450671
C           -0.65049992906565       -1.29526724712336       -0.03145643418093
C            0.60707951348556       -0.71475668153464        0.00284603691158
C            1.81653875732231       -1.55507610379013       -0.22364635358492
H            1.93959819528929        2.41805810393087        0.26042095959006
H            2.65452050322662        1.05087648052672       -0.58103126883758
H            2.58606418261446        1.06542636538544        1.18451112720726
H           -0.35922923755017        2.45525674271651        0.64053707212671
H           -2.56709530730350        1.39214547786204        0.59139492589263
H           -5.18840365383506       -0.68530939703466        0.49270175655398
H           -3.86692044681537        2.19971388395865       -3.81977074996214
H           -6.30004148415395        3.61376930500337       -3.70049537496236
H           -8.40110543643644        3.77646480948203       -2.41327847240850
H           -8.76663514129683        2.35754490647925       -0.44531800319291
H           -7.04567488347261        0.74943027010905        0.27823572516142
H           -0.74698841090348       -2.35059173496745       -0.21439010151117
H            1.57038091764563       -2.61701994430278       -0.20261131939623
H            2.56700922902528       -1.37832037719512        0.54708783637057
H            2.26438678506600       -1.33780372676624       -1.19358241406884
