42
 energy: -8.162194536640 gnorm: 0.000897103422 xtb: 6.5.0 (97a52f5)
C            2.04558232521691       -0.58920276836430       -0.64806192712621
C            0.59901254623099       -0.32453604582682       -0.41651282134640
C           -0.28145950939460       -1.36560031459934       -0.16075719757471
C           -1.61580991094523       -1.11773113343045        0.07398725856791
C           -2.10241244601508        0.17867410852055        0.06533154502860
C           -3.54226617199418        0.44248061366628        0.31851976144640
O           -4.31143019074794       -0.48566320656515        0.48131429547615
O           -3.91895388436315        1.75726247598956        0.34909997576229
C           -5.29796220383110        1.85358291390912        0.62951064113993
C           -5.87837938301926        3.18940649576455        0.32772549285299
C           -5.24000183093945        4.39475987513870        0.38719082083500
C           -3.81851910057500        4.62295607840898        0.70930489470202
C           -6.15976061782869        5.45560796590599        0.01467738687496
O           -5.90789927381923        6.64940189357191       -0.06344917050895
N           -7.38208751072569        4.82062960740329       -0.23497995247018
C           -8.70823019626699        5.05132105620267       -0.61765873866534
O           -9.23009444696219        6.12239078181066       -0.89200749245782
C           -9.34223930883194        3.74397315624119       -0.62965664980176
C          -10.76119405035624        3.53179000877874       -0.98233450676820
C           -8.43980247135203        2.78486921626713       -0.26078621457648
C           -8.67425498155662        1.33170713643541       -0.16484917006475
N           -7.21006858461842        3.40830392301201       -0.03170517241224
C           -1.22506581816947        1.22175234377536       -0.17978658255117
C            0.10913037795114        0.97316712259252       -0.41432931679892
H            2.20167074615993       -1.58422471893228       -1.06549149064121
H            2.60414552693860       -0.52310088690901        0.28592503549615
H            2.46895415239905        0.13220099088358       -1.34742111338860
H            0.08882336178415       -2.37628345920084       -0.14595724783641
H           -2.30055782792254       -1.92581433171690        0.26751402127536
H           -5.44107313148651        1.60041534550243        1.68657726042754
H           -5.80253597693729        1.08631435720999        0.03245494567008
H           -3.44547463116135        3.85363291367394        1.38601945683962
H           -3.68240515441872        5.59501784871298        1.18417009202348
H           -3.21306498422144        4.59902839807739       -0.19681280701093
H          -11.20179502380287        4.45587455111042       -1.35824629599709
H          -11.33565827328600        3.21530345793225       -0.11144350114748
H          -10.86204784810227        2.77118417088189       -1.75692526089937
H           -9.72966242177355        1.11236143415191       -0.00346358885946
H           -8.11803807219602        0.90408595791648        0.66906138702898
H           -8.35908047841280        0.82837829045868       -1.07900916899953
H           -1.60406889698140        2.22898980037399       -0.18331053996581
H            0.78526557634399        1.79050257557556       -0.59783834370301
