51
 energy: -10.868416094875 gnorm: 0.000804000741 xtb: 6.5.0 (97a52f5)
C            2.30566659055033       -0.51534695610389       -0.32967030334327
C            0.87600611724818       -0.15061216072354       -0.13034372159049
C           -0.03540345720004       -1.08283166820812        0.34451384672513
C           -1.35409287819130       -0.73859936908485        0.54706618938917
C           -1.79462941308902        0.54820262191466        0.28413069921699
C           -3.21796709391875        0.91984124374400        0.50218760744591
O           -3.98116701169670        0.13296979159559        1.03130445979083
O           -3.57495075283594        2.17310787766227        0.07751050038736
C           -4.93707429592091        2.42181708621320        0.35249060756750
C           -5.37654576680110        3.80704512354695       -0.02152298561853
C           -6.48602470619287        3.98718453146756       -0.80184138155523
C           -6.93306052484348        5.25908749786813       -1.13981096978707
C           -6.28547697781968        6.39856384707076       -0.70122367161104
C           -6.76002021965229        7.74181410345907       -1.04277064467082
C           -7.88736067624062        7.94994460918809       -1.81855322085484
C           -8.33424246949535        9.22998072826712       -2.13224183319752
C           -7.66380431078991       10.32663028749822       -1.67982107596033
C           -6.50776370935015       10.17994893231630       -0.88687328439793
C           -5.80294905856353       11.30406381007054       -0.41129915687081
C           -4.68843511564416       11.14617885087873        0.35663835340183
C           -4.23068704318623        9.87308086745410        0.68293549900135
C           -4.87971575530029        8.73113071932097        0.24625309083106
C           -4.40713919243167        7.38692903221421        0.58787044125589
C           -3.28265209052499        7.18358066308117        1.36791890299056
C           -2.83868773853737        5.90563174472923        1.68824557737871
C           -3.51069178879058        4.81037547310431        1.23797162245724
C           -4.66712992387540        4.94480625040542        0.44421111367440
C           -5.12218691255319        6.24761780966662        0.10927885189230
C           -6.04676380855494        8.87880437536593       -0.56041181716559
C           -0.88485572014836        1.48492872150939       -0.17949499121907
C            0.43384523263142        1.14040867734179       -0.38071137182863
H            2.41749124434438       -1.58405169587365       -0.51494138215308
H            2.89583912528474       -0.26280054689368        0.55168264361509
H            2.73030277476410        0.01440916306130       -1.18312064304233
H            0.29861429691112       -2.08416007454735        0.55568746657233
H           -2.06014862977619       -1.46383332291207        0.91327753698615
H           -5.10273701224080        2.25078048523066        1.42275165657983
H           -5.52228974170333        1.66872677311940       -0.18788035079341
H           -7.02233379271950        3.12372970056546       -1.15654337206276
H           -7.80853276087042        5.34355447377342       -1.75641369807913
H           -8.44372355000577        7.11035418243767       -2.19189183239154
H           -9.21889409498183        9.35330757545635       -2.73547971485722
H           -8.01098077896286       11.31604446776754       -1.92252886090122
H           -6.15669018247001       12.28911660227390       -0.66224150103328
H           -4.15626219263752       12.01234340434444        0.71473221033435
H           -3.34848759920743        9.78985753400670        1.29001698506521
H           -2.72804706965468        8.02437165656451        1.74113120548221
H           -1.95567633281099        5.78173288396400        2.29372447676406
H           -3.15091557345897        3.82391068194582        1.46922192238061
H           -1.22618038578639        2.48603361669707       -0.37903327784640
H            1.13531272770617        1.87609731618201       -0.73518840435512
