44
 energy: -8.159996665302 gnorm: 0.000374154119 xtb: 6.5.0 (97a52f5)
C            1.88133461474117        0.28590784527408        2.03869957299758
C            3.00661384132937        0.35873617099661        0.99968261042223
C            2.53463919789969        1.18648388325384       -0.20388881939031
C            4.23164864065494        1.04714464946073        1.62342066583422
C            3.39229747405632       -1.08146801401364        0.54281952409272
N            4.07282389492915       -1.81035951675206        1.62444251066549
C            3.36404865458970       -2.54868692348216        2.55397620264910
C            3.89612741958961       -2.84584698024922        3.81912145878331
Cl           5.48971355237778       -2.27166959208235        4.27483766313294
C            3.14295891468660       -3.57525312570302        4.71230884100265
C            1.86842001587693       -4.02438986778999        4.39029299098311
Cl           0.93083757343713       -4.95525067128857        5.54630501370372
C            1.34895510200113       -3.73263543412832        3.14727250402128
C            2.07402157677965       -2.99615961466872        2.22371163374429
C            1.54499596508030       -2.75025699724465        0.87574114662751
O            0.54722180724339       -3.34820551474204        0.49519512341648
N            2.22106639332176       -1.85431935121969        0.04188096328094
C            1.95854021921716       -1.91353613157333       -1.40483650915302
C            0.83262720402981       -1.04002574484080       -1.85897316506544
C           -0.38914817784525       -1.07892431110714       -1.20956173055852
C           -1.43184739083775       -0.27088528891066       -1.61023054965497
C           -1.26558335263134        0.58544463624689       -2.67811843568392
C           -0.05808370955260        0.62702370064158       -3.34347080026302
C            0.98349739423064       -0.18230757866425       -2.93853677750062
H            1.58431419002784        1.28253162684003        2.36305330656312
H            2.19915811417821       -0.27202114760773        2.91805578150951
H            1.00433834092056       -0.20897270728251        1.62371898286778
H            2.36011261220129        2.22333265999830        0.08088647669044
H            1.59983052160622        0.79714854560020       -0.59777823734876
H            3.27516537162148        1.17803834387451       -1.00262639161424
H            4.00168742519350        2.07706362759545        1.89372409605369
H            5.06837533681987        1.06219108461861        0.92620893470672
H            4.55078348741048        0.53503186320289        2.52983344405714
H            4.10263473601739       -0.99478025662398       -0.28896306583071
H            5.00264806514667       -1.46904625345007        1.85745295715257
H            3.54936594140152       -3.80012374381172        5.68250067770920
H            0.37138149752328       -4.09330988425799        2.88151795814422
H            1.73026321199248       -2.95365474526540       -1.65526532073885
H            2.87551420829325       -1.66254654032042       -1.94395337681659
H           -0.51109843636961       -1.76136548269212       -0.38758811335626
H           -2.37559813015023       -0.31109313183009       -1.09151833787440
H           -2.07885739157833        1.21770720342237       -2.99512845440374
H            0.07245216113342        1.29264144613588       -4.18088443706254
H            1.92565191139827       -0.14922273555904       -3.45821851849750
