21
 energy: -3.710436420980 gnorm: 0.000351737989 xtb: 6.5.0 (97a52f5)
C            3.02346516183100        0.41857338085501        0.00246197482523
C            1.57586932213053        0.06482158691226       -0.00020226540890
C            1.15762314408658       -1.25560304955547       -0.00113069778682
C           -0.18649972541701       -1.56419529691502       -0.00172608350704
C           -1.15412841703367       -0.56830659601156       -0.00135505760169
C           -2.59832606204028       -0.94169097880220        0.00005314394776
C           -0.74563493674337        0.77013143672330       -0.00147764185919
C           -1.71861064375663        1.90157514265764       -0.00537017258596
C            0.61204275913603        1.06031689035867       -0.00085622178779
H            3.65223136613099       -0.47308770177352       -0.00220537218762
H            3.27942344855193        1.00189023567107        0.88841291042400
H            3.28043649626385        1.01198845804151       -0.87643590783315
H            1.89290569228738       -2.04254509700296       -0.00144299065347
H           -0.49701503906340       -2.59547830888736       -0.00190280313176
H           -2.72854277383777       -2.02500443840546        0.00051313036392
H           -3.10506168897128       -0.55182796306375       -0.88412607560560
H           -3.10315504890090       -0.55165128499507        0.88527977039968
H           -2.75248751179382        1.55736625461689        0.00699488247520
H           -1.58826951519223        2.51997152702614       -0.89491250850735
H           -1.57364670076569        2.53884238203215        0.86844776870373
H            0.92599067309774        2.08963342051774       -0.00089978268316
