63
 energy: -10.312044791217 gnorm: 0.000716990477 xtb: 6.5.0 (97a52f5)
C            2.79601114802737        0.04349203116084        0.40943214084935
C            1.32166487934877        0.03136458929199        0.20469854848125
C            0.63691695625250       -1.15771076158575       -0.00514991116899
C           -0.72884396261523       -1.15936392810723       -0.21374232618842
C           -1.45414461021771        0.01465447260327       -0.22775735974395
C           -2.92286086848481       -0.02420104617386       -0.46739810001263
C           -0.78131693383787        1.24151891341511       -0.00518029141754
C           -1.51055162110176        2.53756016222555        0.01697562446488
C           -1.30646137093392        3.44373801106289       -1.09300674839566
C           -0.43352112145830        3.07211366935532       -2.13770288599251
C           -0.19994039574688        3.88500513114148       -3.21261321530763
C           -0.82954364385800        5.13148560108548       -3.32739899450957
N           -0.59480027844610        5.96994078365837       -4.42271134554024
C           -1.29346921169315        7.24672818347392       -4.57351891404330
C            0.37065613058271        5.61881814583190       -5.46486169343364
C           -1.71114652092441        5.50448502899066       -2.30211791126242
C           -1.94347655978795        4.69188853649916       -1.22742277261511
Si          -3.17309178638365        5.27226720540510        0.01199689324926
C           -4.86907168936113        5.41172576538117       -0.77556135814393
C           -2.61054559225265        6.89561864756272        0.76352573002035
C           -3.17305619761168        3.95063651820596        1.29155370936995
C           -3.95970993190827        4.14585533421274        2.39262523328148
C           -3.99510242465353        3.21702691378700        3.44328074723042
N           -4.79765250449210        3.42701201956552        4.57046656186423
C           -5.54450408392095        4.67068028456455        4.75985820706832
C           -4.94139509866430        2.40966190868288        5.61203172339520
C           -3.18835942861801        2.07785315960377        3.32290343365362
C           -2.40250600019990        1.88295001642032        2.22067733875828
C           -2.36646811999260        2.80566313124410        1.15372145599169
C            0.60927810799936        1.21168034581497        0.19821897378239
H            3.17619202438305       -0.95737123264131        0.61478703481084
H            3.06646638537924        0.68058139552650        1.25186495774130
H            3.30595342946403        0.42113024256967       -0.47714955179947
H            1.18255703906178       -2.08529479849483       -0.00692460343954
H           -1.24338637503830       -2.09107496062439       -0.37441868531800
H           -3.17866924607222       -0.78125917031444       -1.20891696521039
H           -3.28817086612135        0.93406172708467       -0.83666658352385
H           -3.46014148790199       -0.25791967115611        0.45187810440170
H            0.05882954429776        2.11786804079113       -2.08647066183868
H            0.47138134858590        3.56127707091202       -3.98734841435837
H           -2.36917031537284        7.08831168015334       -4.54851965777556
H           -1.04521182194779        7.72061652171145       -5.52015035970982
H           -1.01263624279651        7.92175145789351       -3.76833255693930
H            1.33975125205804        5.40591492811130       -5.01898357310546
H            0.49818116520040        6.43449717738017       -6.17259958562538
H            0.02713554157455        4.74225018048323       -6.00966611074752
H           -2.21984630389257        6.44950090693092       -2.35678181573658
H           -4.85587301209063        6.15631240853255       -1.56569063355530
H           -5.60570752680044        5.70222785978990       -0.03266345854559
H           -5.15779367677434        4.45510481640787       -1.20037389453820
H           -2.56058883047221        7.66664321082585        0.00078715151778
H           -1.62541238790598        6.77308254634361        1.20343635606037
H           -3.30309009103770        7.21289656201265        1.53717489767624
H           -4.56618530583461        5.03139325044814        2.44624127955340
H           -4.88285251385525        5.52537050225844        4.63589190746307
H           -5.97305249810193        4.72099642198345        5.75833204728931
H           -6.35198264184174        4.73427173602703        4.03360416884587
H           -5.18796770691276        1.44925086410238        5.16445663616081
H           -5.73808857704066        2.67061294144746        6.30491228711859
H           -4.01303206049927        2.31622066309156        6.17133947205301
H           -3.17906088882911        1.35335680290071        4.11705001630953
H           -1.78436411679727        1.00492198756004        2.16529201952395
H            1.12671949888754        2.13928715557239        0.36404628155789
