28
 energy: -5.914261922853 gnorm: 0.000425816398 xtb: 6.5.0 (97a52f5)
C            0.96780832651589       -0.13885004607264        0.00315001121701
C            2.45288197286695       -0.08972403762294        0.00170868178838
C            3.12343927601902        1.10373891107500        0.00116326048157
C            4.51663067288249        1.14842443374326       -0.00041926910154
C            5.26186651596480       -0.00024831429633       -0.00137298633459
C            6.74742312784967        0.04343041605656       -0.00346383961236
C            4.60582555730980       -1.25928405339268       -0.00062430617992
N            5.35849491021456       -2.37726781346846       -0.00124040374685
C            4.68091519900436       -3.49904625156181       -0.00009589790310
C            5.42715923476785       -4.76258611902967        0.00005051222067
O            6.64440910436994       -4.77344233111032       -0.00019540940598
N            4.69846165768167       -5.93876998134666        0.00069638281716
C            3.31733111335668       -5.99603177666544        0.00200568076194
O            2.72257316022723       -7.05798318831808        0.00286282474320
N            2.64370856057033       -4.78898685214150        0.00233195906724
C            3.26514875501291       -3.54624556946319        0.00133606262550
N            2.51133083379990       -2.46776902990320        0.00185880889812
C            3.18800242127606       -1.30630728626196        0.00094256579202
H            0.53188316966410        0.86054646302292        0.00310123615259
H            0.60447257483010       -0.66629313698342        0.88561080139632
H            0.60280746292852       -0.66705013347013       -0.87817560537559
H            2.56295849919012        2.02278411496555        0.00189915410117
H            5.01729377464180        2.10140163225891       -0.00100995288934
H            7.12053312523885        1.06795652861004       -0.00257076305901
H            7.14276885800465       -0.46005177869472       -0.88623546084541
H            7.14533858460005       -0.46254329591661        0.87672299406520
H            5.20681250740443       -6.80321540150401        0.00082856085666
H            1.63744104380727       -4.80636610250847        0.00346439746895
