18
 energy: -3.264352136670 gnorm: 0.000240354433 xtb: 6.5.0 (97a52f5)
C            2.89021119979495        0.00410418867003        0.00437794145748
C            1.40011320889537       -0.00892272733803        0.00218802244202
C            0.69102217465207       -1.20152217128267        0.00182273195829
C           -0.68968279995550       -1.20234695161640        0.00057139447974
C           -1.40020744986829       -0.01060764062011       -0.00014216700044
C           -2.89033956997139        0.00057412203207       -0.00147326910635
C           -0.69104407131018        1.18085768194731        0.00042147685228
C            0.68950246256096        1.18168741963009        0.00169747091300
H            3.29831021355881       -1.00765627716160       -0.00503566853301
H            3.27329041810601        0.50942715357853        0.89232438707897
H            3.27583195297103        0.52673677529991       -0.87238523809278
H            1.22990114460179       -2.13390269956058        0.00258263697928
H           -1.22743384925749       -2.13537580083239        0.00023511992349
H           -3.29712370974578       -1.01175759741733        0.00007087058088
H           -3.27457328966102        0.51240188132489       -0.88518396924826
H           -3.27614234740764        0.51566793161243        0.87965510161007
H           -1.23220105972436        2.11205221813003       -0.00005522541074
H            1.22953537176066        2.11353249360382        0.00235838311608
