34
 energy: -6.333758905133 gnorm: 0.000931069787 xtb: 6.5.0 (97a52f5)
C            0.90082822906452        0.03042158554252        0.13408141451579
C            2.37880524757304        0.07849071903823        0.09764351261190
C            3.15882955901324        1.20801732622000        0.10633960270429
C            4.49985357166639        0.80841553560837        0.04633138733293
C            4.53199107238692       -0.56277262461473       -0.01193313389377
C            5.74168324166806       -1.41246515368829       -0.06267540351888
N            3.22205529321547       -1.02207041267794        0.02188371672834
C            2.80531797360061       -2.40940423057400       -0.01444345528275
C            3.09528193770984       -3.26136273197616        1.04175546349840
C            2.70160622818910       -4.57894980680701        1.00702881499475
C            1.99954076456402       -5.09199745372739       -0.08755808970550
N            1.59854583173013       -6.44795500777864       -0.12796608175132
C            1.89756665119310       -7.36481210156224        0.97194732730788
C            0.82133908177208       -6.98016537745389       -1.24746685952701
C            1.71010893218951       -4.22273281465960       -1.14315792024077
C            2.10827761982083       -2.90671258580398       -1.10650624617597
H            0.50343499620698        0.76849982671889        0.83235997834649
H            0.55224645014339       -0.95291457887328        0.45137644328516
H            0.48136459342661        0.23548732706871       -0.85184993787915
H            2.79491685907003        2.22158779583758        0.15381391227893
H            5.36077517294113        1.45720779326782        0.04113935947210
H            6.50584982396299       -0.96665429168381       -0.70070071840112
H            5.50589688330787       -2.39942045578462       -0.46123749038491
H            6.16548548914822       -1.54310507800103        0.93371570301101
H            3.63270946025262       -2.87198412711957        1.88915828527581
H            2.93697496570328       -5.22492668220293        1.83410531369557
H            2.97400624070644       -7.43599039259099        1.11699530271482
H            1.51705076201691       -8.36330481222513        0.76716235300495
H            1.43762991316492       -7.00904628830479        1.89218533642286
H            1.38041670503984       -6.87395184513603       -2.17505227922181
H           -0.12107994033607       -6.44306320103183       -1.33682659148191
H            0.59763053608891       -8.03590845503363       -1.10657233948469
H            1.16968190771328       -4.58960064566344       -1.99755347701575
H            1.88519794608683       -2.24391675432609       -1.92476320323848
