24
 energy: -3.463371433699 gnorm: 0.000496724110 xtb: 6.5.0 (97a52f5)
Br           0.97483206962785       -0.12176196649898       -0.18276370819988
C            2.80849979620373       -0.16576433176311       -0.57332937135050
C            3.68986321714268       -0.52857534950466        0.38897928028498
N            5.05336467152087       -0.56812797934290        0.12000060845485
C            5.96654645615995       -1.01437658773358        1.16519625019168
N            7.36968067355551       -0.89229965498377        0.78919267902818
C            8.34779376444693       -1.17519494308421        1.73603756008094
C            9.66035617997072       -1.12845749762614        1.40473344394609
Br          10.95930114123750       -1.51412623741711        2.70116682077618
C           10.04546954629764       -0.79581784713829        0.10298455641554
C            9.08914127458760       -0.51031251738132       -0.83643855430535
Br           9.60225176818314       -0.05897182648988       -2.57732868787014
C            7.72501434790763       -0.54233223476300       -0.52744638806577
N            6.84055003239608       -0.23535184064766       -1.48338116763287
C            5.54345457255510       -0.22946238470420       -1.15551603636778
C            4.60498189969193        0.13662919900481       -2.12645170181065
Br           5.21541264354566        0.58871992320332       -3.83514825504035
C            3.26285264591155        0.17171692413211       -1.85147209659286
H            3.34092601972763       -0.79616430405654        1.37299649470821
H            5.75384627323761       -2.06197941058902        1.39367092569872
H            5.78915909256971       -0.42007767661734        2.06515366422390
H            8.04872583512082       -1.43812615421116        2.73751482121619
H           11.09219221366044       -0.76239226676932       -0.15863622776644
H            2.55795386474166        0.45848696498200       -2.61694491002288
