95
 energy: -20.285669327972 gnorm: 0.000629612536 xtb: 6.5.0 (97a52f5)
C            0.20707621004805        1.65439569262347        2.81433209542442
C            1.24972892265562        2.05279762955984        2.34350638142348
C            2.47112684044935        2.53990068716298        1.82655767529361
N            3.18578554848300        3.40737752901447        2.78050864962794
C            4.09838476807772        2.96477768990876        3.75210489742186
C            4.61119094681150        1.69690128850476        4.02773271034678
C            5.50857091731171        1.55863896297780        5.05959210953015
C            5.90395490210489        2.65834922891233        5.82357481316906
C            5.40454285349715        3.91530520479187        5.56776107505501
C            4.49448692838454        4.07215064597750        4.52542324077465
C            3.78373834205605        5.22548812297852        4.01273512404712
C            3.77759941005459        6.56001726206020        4.38751717058081
C            2.97872331196013        7.46860476227846        3.68848657057462
C            2.96193505752785        8.86608147552047        4.08605377351429
C            2.77503277947945        9.94250705905212        3.27790751346194
C            2.80868085986108        9.96340054684723        1.84960212533700
N            2.36365990904261       10.97653605425208        1.06570739751507
C            2.51870099774687       10.71301262442943       -0.27910107731895
C            2.09508087293322       11.62920904029638       -1.29237905855848
C            1.44040016968304       11.17921100604678       -2.53438413092145
C            1.26468470688872        9.81998008282038       -2.81198107004881
C            0.61043408064510        9.39433322628462       -3.95211694290184
C            0.08132223497522       10.31524505091291       -4.83120861840577
I           -0.88733681507208        9.67415341854321       -6.56525611060710
C            0.18089072377197       11.66149366126740       -4.55060194994634
C            0.83466324686687       12.08579978220451       -3.40951906420187
C            2.08691842391820       12.99509451872837       -0.86993948723988
C            2.31138870231438       14.24165243959220       -1.56801395817153
C            2.80917936299086       14.43178209814826       -2.95549958101114
C            2.19212583394840       15.25402836365650       -0.64906497375133
C            1.94040149249869       14.69179423689555        0.63567977370357
C            1.75665818357711       15.35651365337171        1.87922683090592
C            1.73255846177336       16.69795157184126        2.03511057277088
C            1.53296890630260       17.38798951688972        3.28418921241287
C            1.31377186957399       16.69386860874024        4.50076578861557
C            1.11542321880540       17.35082752417900        5.68461055080798
C            1.12932408458258       18.75012361708428        5.69239507770794
C            1.35412862812314       19.46042382968015        4.49376661979799
C            1.55263185456098       18.78494140380589        3.29968437055962
C            1.33969856556258       20.87037131896965        4.82608483407504
C            1.52258542648623       22.01906439160937        4.06032960796281
C            1.47128910381533       23.24403491014646        4.68625970947920
C            1.24389192008148       23.33981349087046        6.06050153276420
C            1.06190947911475       22.21560200828590        6.82998431061261
C            1.10621810941020       20.96616924104426        6.21078338459524
N            0.96151635647971       19.66784589521353        6.72620156851413
C            0.79071770528171       19.33540810180839        8.15241936006200
C            2.02257048614299       19.19618485922612        8.83024874245105
C            3.09458637020268       19.08562121230963        9.38362070310660
N            1.92545254325145       13.34963253432639        0.45222113909453
B            1.70929010681669       12.28576435375828        1.54388261842054
F            2.31276172233594       12.70510109806320        2.72250224358563
F            0.34718533120577       12.07880811548719        1.71297887450724
C            3.22924685179026        9.45610493549708       -0.33689462871447
C            3.90239378420406        8.84280477223455       -1.51123875452673
C            3.38184995794285        9.01489069869636        0.95220542553275
C            2.15035535787383        6.98642692818084        2.64367206643373
C            2.14531448777146        5.67167449443609        2.26707449598327
C            2.97766594871333        4.77420904521079        2.94530450633007
H           -0.70836069465407        1.30384899959352        3.23358052573978
H            2.29954844917602        3.10853630969613        0.90726220403657
H            3.13110844754055        1.71111040999587        1.55249409271319
H            4.30104090076301        0.85216308865270        3.43944039268011
H            5.91387268849590        0.58563039737653        5.28363497465963
H            6.60923599443183        2.51985210701373        6.62631778937103
H            5.70164983132400        4.76650662014964        6.15436783932755
H            4.39629348787014        6.89428497185893        5.19960310949151
H            3.08551931165076        9.05148275815477        5.14200500852258
H            2.62669737112002       10.90280575951985        3.74157829074299
H            1.59082244163642        9.09048642870342       -2.09521986725586
H            0.49185286187744        8.34149871818398       -4.15743589103150
H           -0.27080336928274       12.37437450999573       -5.22324510848754
H            0.82319642940682       13.12948594466801       -3.15979455590894
H            3.03773910159975       13.47789234496189       -3.43149369547291
H            3.72705874563362       15.02057366308285       -2.95404661008170
H            2.07852437025537       14.96096421128748       -3.56804429898219
H            2.34268405207658       16.29882214737930       -0.85754734293580
H            1.63539277097943       14.72295477875710        2.73623716385609
H            1.86587602505920       17.30943682818842        1.16084759349887
H            1.30261698961602       15.61915624842450        4.49609269860134
H            0.95453921355486       16.81288785696147        6.60155592893688
H            1.72324150386184       19.33713104525690        2.39406189657492
H            1.70269877179559       21.93686765180982        3.00310837272031
H            1.61106050242428       24.14253146154685        4.10817496179158
H            1.21190540262859       24.31168495672890        6.52492586969164
H            0.89241200292385       22.28419629675665        7.88946561726211
H            0.20706881699653       18.41231968898288        8.22322077498047
H            0.18144753896294       20.11640698291910        8.61775635630258
H            4.04181658511199       18.98713025773467        9.86298179987581
H            3.79930709490381        9.46451097471965       -2.40083751166033
H            3.49315750968983        7.85546562310628       -1.72780677117596
H            4.96943731175641        8.72411979541435       -1.32038373543051
H            3.93212455554155        8.13679542216638        1.24180464888030
H            1.49903882235355        7.68312611312266        2.14539966870649
H            1.51319079790784        5.32004710385507        1.47166997209290
