34
 energy: -6.564747617959 gnorm: 0.000716837143 xtb: 6.5.0 (97a52f5)
C            2.70124602758550       -0.16645123594776        0.29381644681792
C            1.21510822756414       -0.11921458540668        0.21161142035805
C            0.44771731078714       -1.26262764026207        0.38723419413026
C           -0.92448287351904       -1.21208076321526        0.30090782748164
C           -1.58296824668850       -0.01064929885031        0.03351166150330
C           -3.05084264280376        0.04304301823531       -0.08066305421811
C           -3.68949174007337        0.71913813967481       -1.13569142974248
C           -3.16045322900237        1.40413352869996       -2.25191023177028
C           -4.22457998953879        1.87180095494255       -3.01763513969530
I           -4.02104995908787        2.96166705220627       -4.77962590564603
C           -5.42470129488753        1.48488105046523       -2.40769339072510
I           -7.34291632651644        1.89294879559623       -3.10563306800467
N           -5.08113471566506        0.79923074812650       -1.29520263869215
B           -6.08292136941654        0.14667242647328       -0.33282829629327
F           -6.87075971254969        1.13296800693420        0.23859695623778
F           -6.84256956113370       -0.78016786275840       -1.02844603540156
N           -5.29903251201646       -0.57406766137304        0.77247318988109
C           -3.89824375120911       -0.58479839462603        0.84942824001880
C           -3.60994836402945       -1.30260638734598        2.03124274659000
C           -4.81524717787834       -1.69735452218107        2.60425873754429
I           -4.98264778374811       -2.78738335134419        4.37069176063673
C           -5.86812346182725       -1.23496849212171        1.80423075181129
I           -7.89935866155716       -1.52046290480938        2.15974616969900
C           -0.80516969447551        1.13592118564515       -0.13643132596514
C            0.56654848539485        1.07917407777557       -0.04882151133314
H            3.05702544208007       -1.17572259095315        0.50195977656190
H            3.06633575078043        0.48636238765862        1.08711638268272
H            3.15070365554230        0.15803678036847       -0.64516793703729
H            0.93875151688795       -2.19922826048770        0.58790647686795
H           -1.50503248411023       -2.11113660725903        0.41314207833131
H           -2.11693470437429        1.52347185963074       -2.49080932599023
H           -2.63113387181462       -1.49466535430876        2.43775569511199
H           -1.29533898174182        2.07638729319215       -0.31869340278498
H            1.15259669304265        1.97225860762563       -0.18239781896641
