63
 energy: -10.310755601622 gnorm: 0.000591387508 xtb: 6.5.0 (97a52f5)
C            2.45590634373392        1.04921916969952       -0.05867971659427
C            1.16670761609862        0.30564323639418       -0.03445110654539
C            1.12542092716443       -1.06035765193499       -0.27693696039298
C           -0.06837825613872       -1.73621150032363       -0.27950431774488
C           -1.28316128449885       -1.07110408616928       -0.04327462122639
C           -2.56603616884461       -1.82390181643163       -0.07051457106479
C           -2.84490137936956       -2.71605663170762        1.03462188723317
C           -1.90860929768553       -2.82781900840636        2.08424860255940
C           -2.11351067452407       -3.65436076711977        3.15464818235788
C           -3.27602116817113       -4.42962130879655        3.25793427204780
N           -3.48960781734477       -5.28447805875269        4.34503851672612
C           -4.73820543817506       -6.03164557010247        4.49967007983063
C           -2.46745426985875       -5.49108839314793        5.37171522940047
C           -4.22162432997370       -4.31310499972287        2.22839009818739
C           -4.01633417542701       -3.48640898414736        1.15894386563691
Si          -5.36539254784734       -3.37533520733291       -0.08737127448536
C           -6.91367762721633       -2.66554548367502        0.69704417586063
C           -5.67291539810982       -5.05790545915697       -0.85651403640588
C           -4.70922585192857       -2.21002952451217       -1.35046148086755
C           -5.49457256615382       -1.96604383236376       -2.44263007931574
C           -5.07316688072767       -1.11352363290516       -3.47381973942368
N           -5.88599483884665       -0.86411928601146       -4.58538534451985
C           -7.15725879383914       -1.56205044373449       -4.77910550718273
C           -5.50817154230831        0.10758815244220       -5.61185480823991
C           -3.80717848948133       -0.52683598116629       -3.34676450062145
C           -3.02182111961672       -0.77190825995455       -2.25416386091097
C           -3.44255858229917       -1.61453650622281       -1.20339304243719
C           -1.24336410454474        0.32194835729506        0.21290587224595
C           -2.49021209270977        1.08823095838177        0.48445904318716
C           -0.02712821763601        0.97544884316982        0.19936926889545
H            3.30419920782923        0.37475829346541        0.06023243651272
H            2.49933300185797        1.78133880431572        0.74813178033386
H            2.57796240068919        1.57989300109546       -1.00323459705053
H            2.04374371701881       -1.58765546864352       -0.46969602577313
H           -0.09066269452831       -2.79375628872374       -0.47728682738557
H           -1.00977027527163       -2.23967594673909        2.04063667400445
H           -1.37619895308052       -3.70539121793855        3.93533515579828
H           -5.58771250410197       -5.35382582406384        4.45166638759572
H           -4.77103818601318       -6.54416229737486        5.45831364623840
H           -4.82790443781320       -6.77367767649140        3.70916005136140
H           -1.52100466965064       -5.75934931743482        4.90721954389502
H           -2.74872461333022       -6.29465760091820        6.04837906223148
H           -2.33534712149777       -4.58132026161301        5.95336791370238
H           -5.12999895987051       -4.88548663866362        2.27437710007234
H           -7.27189349299768       -3.32286117404450        1.48346007230053
H           -7.69474236302885       -2.55286075171995       -0.04871237241414
H           -6.69512786610905       -1.69214128231615        1.12568690694317
H           -6.01981467981886       -5.75807550349579       -0.10266629272112
H           -4.75254483575734       -5.43718360629397       -1.29024206118492
H           -6.42398622536787       -4.98349153075395       -1.63702325288359
H           -6.45977975201653       -2.43482420144282       -2.50207758350316
H           -7.01054425358463       -2.63687280613950       -4.69367278428999
H           -7.56936417861190       -1.35766786780982       -5.76501652854294
H           -7.87673810014412       -1.23816318008195       -4.02964722618771
H           -5.23295481225295        1.05252169950018       -5.14810562842305
H           -6.33461477772084        0.29676003169090       -6.29320615233994
H           -4.66472182100308       -0.26816139537954       -6.18724826066824
H           -3.44426876295053        0.11604675466857       -4.12825811093268
H           -2.05070613506162       -0.31456744481863       -2.19224413962821
H           -3.29388922181798        0.43129856546693        0.81715359229112
H           -2.82931631600937        1.60818197451941       -0.41170194747706
H           -2.32903959679757        1.83196154478634        1.26516900339281
H           -0.00232069491652        2.03568228979994        0.37729633854712
