58
 energy: -12.597618880640 gnorm: 0.000925191370 xtb: 6.5.0 (97a52f5)
C            3.32754332008676       -1.84218251247947        2.37485077404817
C            1.96990185480237       -1.46364668707974        1.89405667424855
C            0.93732471179187       -2.39111410218652        1.86178135068930
C           -0.31089273219700       -2.04130679296615        1.40002223320371
C           -0.57135831901824       -0.74699513316655        0.94711132166909
C           -1.90812195928528       -0.37239425795959        0.44918189802003
C           -2.08635845776611        0.31283339536717       -0.76561747236922
C           -1.13759638862296        0.74966670091126       -1.73249851783815
C           -1.82223546404220        1.34822842698088       -2.76272201332242
C           -3.21301270549743        1.29966782285683       -2.48201665772607
C           -4.28351932915495        1.75735603223430       -3.23112726385379
C           -5.28051856660026        2.14096835591049       -3.83409465890773
C           -6.45680660540515        2.56139025323768       -4.47129660474161
C           -7.51452455319418        3.07569138486099       -3.72582179918968
C           -8.67731669235968        3.48361687218038       -4.34240049949972
C           -8.80453285102814        3.38380442567391       -5.71332566344202
C           -7.76589488837984        2.87516631670795       -6.46721244473046
C           -6.60152752778089        2.46724893681485       -5.85300302304241
N           -3.32192405561455        0.67135836002959       -1.28244364980995
B           -4.65717974055470        0.35471765114106       -0.59151097901435
F           -5.32322878056399        1.54239457028070       -0.32005390006384
F           -5.40373995266522       -0.48177675724456       -1.40993354892292
N           -4.36011315392837       -0.37217328241063        0.72895362986533
C           -5.31006475718121       -0.76844675991623        1.61572505839069
C           -6.67215581987554       -0.58829419050815        1.44714737122561
C           -7.86727529477430       -0.40064645197918        1.24444678181194
C           -9.22206202031656       -0.15794760372873        0.97691149122872
C          -10.19084772064816       -1.11879565320414        1.25417197493316
C          -11.51976854905135       -0.87626163749183        0.98121762514792
C          -11.90308617076002        0.32879753592110        0.42743670245733
C          -10.95509342973678        1.29193370421078        0.14597190921169
C           -9.62555342858090        1.05158804561849        0.41719800288077
C           -4.60297312656827       -1.37086462691147        2.68931274846009
C           -3.25648862984906       -1.32368865007892        2.41958107054250
C           -3.08024132284025       -0.68871462745694        1.15811345510583
C            0.47274676879196        0.17867792416951        0.97647049558213
C            1.71876094005669       -0.17649548885391        1.44034090255687
H            3.30894325354317       -2.79216574741848        2.90972746679266
H            3.72483809769483       -1.08742443269601        3.05427057614982
H            4.01978405440656       -1.94183094704609        1.53824114128786
H            1.12337655032941       -3.39608828166695        2.19972351276943
H           -1.09817563930063       -2.77414490636925        1.36391958580503
H           -0.07136527803611        0.61574289121311       -1.67140538420844
H           -1.38561608376683        1.77650241401824       -3.64936632781946
H           -7.40913183205640        3.14593157486629       -2.65658926399075
H           -9.48802691695133        3.88000336782978       -3.75343314305058
H           -9.71501054201351        3.70073081380688       -6.19500696901098
H           -7.86630982151373        2.79529721777955       -7.53721111845176
H           -5.78995788764137        2.06696101755036       -6.43629883879614
H           -9.88703754617255       -2.05786188766565        1.68425126312187
H          -12.25971544332459       -1.62863816360463        1.19966801382765
H          -12.94264092939851        0.51678968431445        0.21432310095014
H          -11.25408026391711        2.23242687136802       -0.28687962694827
H           -8.88003530156303        1.79651315521196        0.19682058264420
H           -5.05870092890930       -1.79046962114277        3.57046712667050
H           -2.46760703408545       -1.68323149222367        3.05753922728052
H            0.28598899970509        1.18576768371661        0.64637941856562
H            2.51483589131082        0.54806728890167        1.45595488037414
