46
 energy: -9.672560869161 gnorm: 0.000865678587 xtb: 6.5.0 (97a52f5)
C            1.45476703911557       -0.67650906098328        4.31576105924654
C            0.52263773901342       -0.55255942289577        3.16116765009178
C           -0.80008580975741       -0.95830202077132        3.27024068304119
C           -1.66865361193975       -0.82462893795054        2.21190963134012
C           -1.24629271633572       -0.27040762930050        1.00167495325429
C           -2.17310716614088       -0.13415777427328       -0.13535218731678
C           -2.26576739347228        1.05510378435150       -0.88747374829850
C           -1.60374008405737        2.30267328477100       -0.73778269582427
C           -2.06437147290337        3.14757844270591       -1.71699247239231
C           -3.02756183828028        2.45949581344220       -2.49854892180462
C           -3.76587029184260        2.89837177279923       -3.59377048239314
C           -4.45152738532048        3.19121954067773       -4.56383436648218
C           -5.27120285652325        3.43407520597180       -5.67981465794005
C           -5.39297730751500        4.70718983455353       -6.22673895380942
C           -6.20202403248206        4.92702155076631       -7.32082449597712
C           -6.90084557506291        3.87945390664216       -7.88575758503190
C           -6.79022926190834        2.61055890813018       -7.35473333069148
C           -5.98247816813966        2.38891622078585       -6.26054353266449
N           -3.11609051786219        1.22339728381089       -1.96344282064679
B           -4.07230971381618        0.13176495969114       -2.46771603941696
F           -5.37717234623826        0.58595619154348       -2.35764306611849
F           -3.74609912752292       -0.18592194054976       -3.77753126340691
N           -3.89395683433058       -1.11009191063467       -1.58667310337423
C           -4.55878609444691       -2.29902715738997       -1.76970053087777
Cl          -5.70387368933194       -2.64777661503919       -2.96160590093968
C           -4.06079104196977       -3.19595781303370       -0.77800302092171
C           -3.12699449925299       -2.53617299024158       -0.03877568908285
C           -3.01329372608693       -1.18659555440200       -0.54125377704855
C            0.08254337780889        0.14725256110446        0.90350772563513
C            0.94657749459477        0.00952438778272        1.96505685343828
H            1.18828527802505       -1.52515059513270        4.94641409035495
H            1.42840804169804        0.22316030271991        4.93121411126233
H            2.48084098177948       -0.82529693248477        3.97813414359535
H           -1.14432954519192       -1.37864559183511        4.19956099127710
H           -2.69604877983135       -1.12753652461002        2.31568394783690
H           -0.88544471085486        2.54833937626591        0.02553306432439
H           -1.76011439693423        4.16977830189278       -1.86946646773941
H           -4.84587317535678        5.52114102751837       -5.78245825944324
H           -6.28919389075568        5.91783253623112       -7.73556231029554
H           -7.53284492800091        4.05274024466311       -8.74133933786656
H           -7.33572149493299        1.79219808826637       -7.79541335476422
H           -5.89054996338765        1.40220129085121       -5.83876500622986
H           -4.36705936905602       -4.22158287925509       -0.66030780634897
H           -2.55130009207558       -2.95379747751304        0.76913028785485
H            0.43230823920894        0.55881225794962       -0.02718369803438
H            1.96784471808870        0.33749175304557        1.87381969028873
