41
 energy: -7.834669144237 gnorm: 0.000725586728 xtb: 6.5.0 (97a52f5)
C            0.88097673899326        1.25152336952737       -0.06304475871768
C            2.13732646505179        0.38005742442840       -0.17097518399599
C            1.92028979430166       -0.92544408032154        0.60907966573423
C            2.39665694570966        0.03982658883159       -1.64671682805903
C            3.36187582482707        1.14776330932463        0.41203419158406
N            3.73531629658958        2.29087260385728       -0.43245850531429
C            3.20211119769902        3.54979020138238       -0.22454067539878
C            3.23454727558053        4.53017831940286       -1.21957034489072
C            2.66974149535056        5.76320554986834       -1.00279122257962
C            2.06682997940427        6.04796610438299        0.21194833502346
C            2.03740544076749        5.09740579597729        1.20744043645911
C            2.59856670365664        3.84393380047972        1.00934418175359
C            2.62125983748934        2.85281355506274        2.09448432823020
O            2.22471411768592        3.16865583859965        3.20640674789474
N            3.12919500196970        1.56477017059623        1.82328027526989
C            3.34143162035812        0.62094155047228        2.87787160107943
C            4.44091332795490       -0.23814724246457        2.87116827076118
C            4.61427191337653       -1.17080751677960        3.86927918642102
C            3.69852677221392       -1.26629440287361        4.89811362527748
C            2.61005893029941       -0.41772062144579        4.92826947026223
C            2.43644882945154        0.51550635598938        3.93190158383897
H            0.01020531156920        0.73238297117409       -0.46168920738879
H            1.00251878444590        2.17968747541722       -0.61884285635633
H            0.67452276237736        1.50553512293087        0.97556837389614
H            1.10026710623087       -1.50133857966594        0.18185937893638
H            1.67342212275376       -0.72341715449107        1.64954819472474
H            2.81401346218570       -1.54760945944587        0.58697220555289
H            1.58091070256005       -0.55506677695231       -2.05689370717607
H            3.31810229600754       -0.53049025959958       -1.75994656698549
H            2.47875278282451        0.94365971175980       -2.24889194752023
H            4.21286933708806        0.45770140625891        0.41007400193934
H            4.14240699964644        2.04577904304541       -1.33303701019118
H            3.69918356221894        4.30086947676875       -2.16215533808085
H            2.69516275085230        6.51097846025978       -1.77856732782377
H            1.62710844767990        7.01726952658125        0.37953924719423
H            1.58619332083782        5.31641707393033        2.15966911224561
H            5.17592342990246       -0.15021226762949        2.09134744015499
H            5.46987897067497       -1.82591838151262        3.84995284413825
H            3.83614758066222       -1.99697367557805        5.67821235098020
H            1.89666496752256       -0.48544310056529        5.73318549317121
H            1.59325079322957        1.18304271301518        3.95290093795266
