58
 energy: -12.094381638298 gnorm: 0.000749958316 xtb: 6.5.0 (97a52f5)
C            3.18708075481493       -0.30691964029423        0.48416798272879
C            1.70484990242981       -0.23561133134786        0.35825891316968
C            0.90839442621340       -1.34771302987764        0.59792361949904
C           -0.46045234734991       -1.27288692572354        0.48595367822986
C           -1.08903228188826       -0.07671435945985        0.12850351764164
C           -2.55256106398449        0.00549726311560        0.00244485114765
C           -3.17652695920649        0.65477528965712       -1.08527919207970
C           -2.62340617256503        1.29726349291030       -2.23412903221902
C           -3.65448506413971        1.76992521778189       -3.00006227748650
C           -4.88127938436539        1.42903545079027       -2.36143666222284
N           -6.18802793912573        1.72946414307585       -2.69199815224638
C           -6.76677530751870        2.25521113557031       -3.85857605930758
C           -6.09470118014382        2.25830917262793       -5.08123927072569
C           -6.69196897322083        2.76644025137694       -6.21133304460944
C           -7.97350818996972        3.27856884708273       -6.14876965948520
C           -8.65938915991177        3.27233361383142       -4.94945908369433
C           -8.06681037499104        2.76295772583368       -3.81750577407971
N           -4.53793176068220        0.76423896406535       -1.23225783002068
B           -5.56547155071671        0.17140349925750       -0.26183316976539
F           -6.34911728747223        1.19279269053849        0.25390481557875
F           -6.35041156711403       -0.76574190288771       -0.91667086028098
N           -4.79223870885237       -0.51794450272315        0.86815881573094
C           -5.39710553879778       -1.13295825478870        1.91225152486248
N           -6.76668749117269       -1.28212261843972        2.00386532127599
C           -7.60224634347726       -1.74088733058926        3.03469063346162
C           -8.92807291159331       -2.07468480306729        2.75125696135547
C           -9.77108647652841       -2.51419881952978        3.74525452122314
C           -9.31438242732087       -2.62230176261969        5.04469161347983
C           -8.00965769888355       -2.28254949113735        5.34605271136707
C           -7.16257056267264       -1.84457350971556        4.35470162313294
C           -4.34473575310108       -1.60244767994681        2.74973603489771
C           -3.15086683705910       -1.25078456925035        2.18022374661865
C           -3.42225862599717       -0.56038331780355        0.96016786037402
C           -0.28002935430098        1.03852286554371       -0.10699815158285
C            1.08809329223927        0.95731680015416        0.00808610384672
H            3.52272277259919       -1.32886054926991        0.66271383964452
H            3.53524947055597        0.30921170921069        1.31380357465805
H            3.67153834435367        0.04770647387904       -0.42620412950246
H            1.37515151371361       -2.27853551603875        0.87074386173929
H           -1.06278731061680       -2.14988985941055        0.64717188268614
H           -1.57437541623018        1.39326043635654       -2.45599479093929
H           -3.54863576642670        2.34716106424566       -3.90179975891071
H           -6.83039780927834        1.52108767207679       -1.93563054825774
H           -5.11656830351272        1.81913585868823       -5.14274118346930
H           -6.16143441454259        2.75952921996526       -7.14943285241856
H           -8.43954311727037        3.67691677357192       -7.03498546176885
H           -9.66064700746192        3.66810449713960       -4.90130769149353
H           -8.59762223926956        2.76049713564350       -2.88161053991057
H           -7.23569483687045       -0.99938046734836        1.15043378503362
H           -9.28116251523460       -1.99116058265805        1.73834712329705
H          -10.79022741564230       -2.77423694781642        3.51047738231683
H           -9.97617511105386       -2.96582151067103        5.82273055467809
H           -7.65652542267132       -2.35536243305923        6.36170123911855
H           -6.16285413652735       -1.53886114721420        4.60010747255773
H           -4.45964084150674       -2.18616780788426        3.64612391475892
H           -2.17327005332150       -1.46074796640679        2.57908300053822
H           -0.74549471830980        1.97655364126533       -0.35472061568659
H            1.69689125295467        1.82704773172975       -0.17073668849192
