56
 energy: -11.896913723617 gnorm: 0.000375234799 xtb: 6.5.0 (97a52f5)
C            2.69631361970884        0.17781215109192        0.41443171416225
C            1.21422480011624        0.09184245670271        0.29319079970235
C            0.55071811897037       -1.11721850095215        0.45235922492379
C           -0.81652473038143       -1.19416724397833        0.32334722093428
C           -1.57483010063714       -0.06025905934494        0.02378686991083
C           -3.03857685900761       -0.14301566589783       -0.12448559196672
C           -3.70933576505408        0.42561438852698       -1.22327420871597
C           -3.18751853702267        1.10950155118300       -2.36477674749942
C           -4.23522951515173        1.43007646194277       -3.18267845648482
C           -5.42701522989172        0.95566770159054       -2.58890283979101
Se          -7.04957256710297        1.15098569322138       -3.34099206610905
C           -7.07833882143832        2.44518537768174       -4.58968058321452
C           -6.24023063828477        3.54028225834004       -4.51950809474796
C           -6.30441893698789        4.50010614705172       -5.50726992124031
C           -7.20298368691971        4.36103083858455       -6.55135708744801
C           -8.04602342528315        3.26433055643941       -6.60546379547010
C           -7.98709442580674        2.30187872773102       -5.61808138858744
N           -5.06950335027850        0.35644885019777       -1.42547417513594
B           -6.03013252185454       -0.35226092452832       -0.45537176446688
F           -6.91642389770574        0.58131291619027        0.05650954522700
F           -6.66740655367883       -1.38158419796405       -1.12884204312047
N           -5.21351191263048       -0.94844347426826        0.70378713741331
C           -5.72604042330451       -1.63861804727648        1.75327079227244
Se          -7.42404997990719       -2.11038506810220        2.11612746186407
C           -7.67133037382892       -2.49915105232167        3.85464893183277
C           -8.66354553173545       -3.40732687534940        4.16232702667371
C           -8.88631425951485       -3.74130755352427        5.48271790668556
C           -8.12192235444999       -3.16049704204428        6.48012991365141
C           -7.13807289176697       -2.24066287743494        6.15956255182967
C           -6.91010814562813       -1.90532713699600        4.84172281249569
C           -4.63643388109677       -1.97132776247695        2.58985174402200
C           -3.49333188496881       -1.47262841903336        2.02945727247982
C           -3.84717498840678       -0.81638206312191        0.80995404049138
C           -0.89987030866961        1.15109837657719       -0.14141489982547
C            0.46754831018710        1.22175619951610       -0.00951608959051
H            3.11152669934942       -0.72705070187362        0.85899590563495
H            2.98675616413038        1.01960340889364        1.04379322174742
H            3.15657673158977        0.31230615308818       -0.56490451998096
H            1.11998981899629       -2.00363197555378        0.67410773722001
H           -1.31535984550969       -2.14227600012013        0.42625296933809
H           -2.14700469544103        1.30433140552939       -2.56143087156308
H           -4.16845038268283        1.91628326784563       -4.14145425690707
H           -5.57368491002482        3.64491733711219       -3.68067632038367
H           -5.65770537178609        5.36104263167532       -5.46365190101592
H           -7.24978822462119        5.11195674984740       -7.32281380670265
H           -8.74728545423689        3.16094521934165       -7.41707813314275
H           -8.62819045269594        1.43498559174407       -5.62982953813354
H           -9.23949759869558       -3.84158444365164        3.36097798141702
H           -9.65386080428658       -4.45403244255156        5.73588437959320
H           -8.29646013393390       -3.42237297726186        7.51075115145119
H           -6.55272533655600       -1.78304949227783        6.94013039712603
H           -6.17332498312464       -1.16836318697156        4.57147442170436
H           -4.70166358662955       -2.55394054583474        3.49351777388410
H           -2.50011863269925       -1.55318954149010        2.43718609652883
H           -1.46844575183794        2.04000929269344       -0.35341393441277
H            0.97358840004322        2.16308256174728       -0.13986196657564
