56
 energy: -11.784531053455 gnorm: 0.000273616382 xtb: 6.5.0 (97a52f5)
C            2.69828145983086        0.14407690391172        0.44775407881679
C            1.21480016958996        0.08919113249316        0.32676457944944
C            0.52442733617105       -1.10162428075670        0.50737717740222
C           -0.84414085915526       -1.15009051508434        0.37926628741064
C           -1.57696170606776       -0.00504709288390        0.05934874245883
C           -3.04198553870021       -0.05828916645334       -0.08651741187002
C           -3.70295753018925        0.51157655728578       -1.19112792692354
C           -3.17425777446982        1.17433196464996       -2.34192880431271
C           -4.21932125504299        1.50008947631209       -3.16194838483645
C           -5.41786277087701        1.04977763912941       -2.56003268498344
Te          -7.23879746853592        1.27741549293695       -3.38327711915347
C           -7.18152133941852        2.64068323755680       -4.86686873568127
C           -6.27135111517974        3.68108532156238       -4.82580634517752
C           -6.24581163236937        4.59913057241240       -5.85443377998920
C           -7.12724812863338        4.47631073388532       -6.91434912003020
C           -8.04050606374568        3.43695989776141       -6.94508139031769
C           -8.07148006875885        2.51637114856281       -5.91822759847852
N           -5.06463491557150        0.46224533441228       -1.38981984660534
B           -6.03902759346282       -0.21315954443656       -0.41230768936149
F           -6.90217822471207        0.74497395057988        0.09387260167839
F           -6.70613104886687       -1.23133831568232       -1.07358689972858
N           -5.23108436147608       -0.81735918900856        0.74677049659688
C           -5.75969711279826       -1.49562359989999        1.79554572143850
Te          -7.67459897999129       -1.97816755175140        2.17689230203258
C           -7.88637561478037       -2.59152208447043        4.08551147688938
C           -8.86104834071118       -3.52866415371355        4.37651920860880
C           -9.01551540985733       -3.96522474170192        5.67589065670527
C           -8.20170925760515       -3.46177821466645        6.67560361616213
C           -7.23464981781227       -2.51741384100081        6.37820956888728
C           -7.07480350245620       -2.07832225464732        5.08082565012939
C           -4.67705433618153       -1.84112795531938        2.63809415263313
C           -3.52401660769280       -1.36321103362308        2.07894310015579
C           -3.86260084156757       -0.70919110445059        0.85394735331436
C           -0.87504196113622        1.18765882830773       -0.12757747831800
C            0.49364095261598        1.22995883018064        0.00360069330378
H            3.09365385321335       -0.76528106845009        0.90109470432905
H            3.00682402766661        0.98539411616439        1.06902589733242
H            3.16162146666659        0.25903034087336       -0.53257861742336
H            1.07363367825932       -1.99639144487173        0.74542412690504
H           -1.36406399897042       -2.08470137711464        0.49933668121445
H           -2.13166965363956        1.35300470233222       -2.54257489126739
H           -4.15017230504320        1.98204659466384       -4.12272481558143
H           -5.61021823343318        3.77009316694198       -3.98060504025168
H           -5.54031834113440        5.41332578300226       -5.83114587825567
H           -7.10404545626606        5.19416672128048       -7.71764799813675
H           -8.72719435605627        3.34572499542945       -7.77049692314492
H           -8.77083183156322        1.69642052154339       -5.91686380719887
H           -9.47920783989825       -3.90483119457020        3.57789027442595
H           -9.76908856041016       -4.69868588435647        5.91112297706682
H           -8.32350356554116       -3.80443910832864        7.68994548633429
H           -6.60767950401060       -2.12276159559558        7.16075393223418
H           -6.34486594525985       -1.32722486261268        4.83096363911807
H           -4.75728098900967       -2.40255169902796        3.55375292339090
H           -2.53448417038091       -1.45043393998830        2.49411557983095
H           -1.42344070468836        2.08513776534485       -0.35575249685997
H            1.02078368895122        2.15709508507612       -0.14346200243127
