44
 energy: -9.005389462874 gnorm: 0.000922906971 xtb: 6.5.0 (97a52f5)
C            2.52509854268692        0.18759208626680       -0.23100816061039
C            1.04143273430885        0.10016839813198       -0.13894851371640
C            0.40619737611442       -1.10972379216838        0.10618530389879
C           -0.96515225535296       -1.18321257307204        0.18561824777791
C           -1.75737335373472       -0.04475948716220        0.02128126262571
C           -3.22612070766957       -0.12382173211174        0.11124887839745
C           -4.07113003867791        0.48775122709992       -0.83951015002535
C           -3.71619580917841        1.21029273511021       -2.00685369090832
C           -4.86874317564831        1.59994818815089       -2.63190607828728
C           -5.98470564852030        1.12947471733873       -1.88668257238098
C           -7.38496188657108        1.33704647677690       -2.23971311571268
C           -7.73313526290278        2.06926381326226       -3.37830546060160
C           -9.05122551302050        2.26786543250569       -3.72194407123054
C          -10.05982974272764        1.74216854887530       -2.94048242491796
C           -9.74139639524098        1.01731109072371       -1.81077817256575
C           -8.42427410985152        0.82009921169035       -1.46737827271779
N           -5.45646155870661        0.46188670980703       -0.82467753330834
B           -6.21280671001909       -0.29218250077604        0.28876456993009
F           -6.99760811393971        0.60941343117875        0.99167608395412
F           -6.96115864978783       -1.30953693482457       -0.28388115124782
N           -5.21900646651749       -0.92453736637179        1.26800940183988
C           -5.57283463789861       -1.63592634409276        2.38904113933280
Cl          -7.13920781687609       -1.99898614948035        2.90730985693252
C           -4.35400930368804       -1.99782720514179        3.03720256067137
C           -3.31991171528039       -1.50460545528711        2.30132060932798
C           -3.86298939323357       -0.81719327238328        1.15226360824416
C           -1.11079183253218        1.16850947884302       -0.22399808750082
C            0.26104613407504        1.23573447868912       -0.30258541619046
H            2.99296964726509       -0.78020810634967       -0.04871280356778
H            2.91847408791504        0.89125704522898        0.50325392873791
H            2.83216798030918        0.52526850330106       -1.22134207378316
H            0.99970004884540       -1.99897060683588        0.23179764243649
H           -1.44462049302372       -2.13159816953832        0.35532281121759
H           -2.71406116519833        1.39661175590925       -2.35303786513245
H           -4.91314493939845        2.16341451211453       -3.54832033911601
H           -6.95888660909238        2.48678307168835       -3.99648603044408
H           -9.29756046300988        2.83569202463950       -4.60420479303833
H          -11.09144390412053        1.89699996850631       -3.21073772194162
H          -10.52540630584843        0.60508331543420       -1.19685533592421
H           -8.18910118044566        0.25693830950234       -0.58546746171016
H           -4.28080149315151       -2.55489707822146        3.95579164542889
H           -2.27465316945888       -1.58947073108698        2.54394896007794
H           -1.70049006277207        2.06275036754879       -0.32735471981361
H            0.74474333157571        2.17907260658053       -0.49016449443699
