54
 energy: -11.256211814294 gnorm: 0.000867336473 xtb: 6.5.0 (97a52f5)
C            2.45312242188063        0.13363761756784       -0.05522922976398
C            0.96547743705159        0.06391722125317       -0.04346533596671
C            0.30342573283597       -1.13256207049934        0.19721859033638
C           -1.07147640176389       -1.18894181796147        0.20534653642584
C           -1.83807724117023       -0.04629108364428       -0.03037710543317
C           -3.31348407211347       -0.10769009292670       -0.01570694427327
C           -4.09038125930787        0.45470366542068       -1.04135805484428
C           -3.67149619701114        1.14763413151945       -2.20934154665862
C           -4.79031988874029        1.55085241796657       -2.88914176049351
C           -5.94592169912578        1.10773262613149       -2.18894661744947
C           -7.32125095549776        1.34589823698789       -2.59325803926432
C           -7.62830460085515        2.31441703278273       -3.55606233243940
C           -8.92955714185863        2.54446973016327       -3.93939677156663
C           -9.95976747394088        1.81552312859601       -3.37797969327634
C           -9.68061247408641        0.85093108391273       -2.42999546064372
C           -8.38112445016405        0.62003082650980       -2.04663104699045
N           -5.47637981283247        0.44564197783652       -1.08660613379694
B           -6.29067532383254       -0.30272346038991       -0.00833097792167
F           -7.24071320000055        0.56874341256590        0.51016140569013
F           -6.85747926516742       -1.42345072138813       -0.60590479965553
N           -5.39098318922146       -0.78487874679390        1.15023165926117
C           -4.01150246611000       -0.68796691361240        1.05567527727923
C           -3.50351076969031       -1.20777108539529        2.27700793409500
C           -4.56683113313845       -1.58914838970647        3.05207243840686
C           -5.77373144082249       -1.33041226882437        2.34597176770157
C           -7.11563607092604       -1.58357226416539        2.84263243476837
C           -8.21575102647891       -1.61887440775417        1.98387247667156
C           -9.48354444836099       -1.86266169407213        2.45496111645553
C           -9.68941101433679       -2.08126431423723        3.80291406862328
C           -8.61729631499202       -2.05584887236139        4.67406138873592
C           -7.34739185017028       -1.81279011801726        4.20376888746476
C           -1.16591749249698        1.15343492193192       -0.27020322972869
C            0.20925718099872        1.20371821486263       -0.27675025745017
H            2.89902733869825       -0.83216669724469        0.18401638081129
H            2.81320933732334        0.85695320428891        0.67709702135949
H            2.81922153908539        0.43639029791181       -1.03678564404725
H            0.87894403727625       -2.02433926119407        0.37719336860480
H           -1.57332359619284       -2.12505610801096        0.37929979260878
H           -2.65150620729114        1.31757446235531       -2.50846899661832
H           -4.79097782378417        2.09153318048532       -3.82027940982172
H           -6.83439143818029        2.89601229606855       -3.98995002428052
H           -9.14629484450405        3.29802334833257       -4.67888020887186
H          -10.97815834192039        1.99772062999881       -3.67968484360836
H          -10.48138767769395        0.27732748093974       -1.99261225001383
H           -8.16012410017428       -0.14041259949507       -1.32284058507360
H           -2.46429427421275       -1.26141082094096        2.55248477598902
H           -4.49646260364462       -2.02492380110353        4.03413848817289
H           -8.05125500863088       -1.46181580577975        0.93547450614414
H          -10.31718998100347       -1.88406450406388        1.77196836562916
H          -10.68293032058688       -2.27257304886982        4.17386972384946
H           -8.77747500626789       -2.22497026323697        5.72637119892303
H           -6.52068366889494       -1.78201986497254        4.89131932584966
H           -1.73985559433378        2.04972600400919       -0.42954502479138
H            0.71417413637917        2.13649394625992       -0.46143660511779
