44
 energy: -8.813153130150 gnorm: 0.000536173751 xtb: 6.5.0 (97a52f5)
C            1.02462246668679       -0.21120752257403       -0.53138415255561
C            2.49839914886277       -0.14311396365530       -0.11321157272396
C            3.00329869529874        1.29911921133976       -0.16611997517958
C            2.61821755683798       -0.68604481352643        1.31564900182796
N            3.35209367251908       -0.97505922475369       -1.02731511722684
C            4.64339768034320       -1.35142814706450       -0.66983868655660
O            5.27205252974706       -1.02615664165026        0.32258436483727
C            5.11791842602036       -2.25916028460453       -1.73187348517691
C            4.14008035518528       -2.39185390746201       -2.71568875634563
C            4.32749143904912       -3.19590148360931       -3.81531297106319
C            5.51977963513179       -3.91813223970911       -3.94843632339218
C            5.76405181709910       -4.77160113671352       -5.06750228467196
C            6.91693623741074       -5.46823856442977       -5.18228541967873
C            7.94013006747699       -5.37966046350506       -4.18734411620508
C            9.13659089909819       -6.09194455494585       -4.28205691262591
C           10.10224419364744       -5.98309413781865       -3.30302144675443
C            9.90793815686318       -5.16740651580155       -2.20790632488725
C            8.72950656656128       -4.43319655888354       -2.06451768910755
C            8.49455600365873       -3.57854032554481       -0.94195423115194
C            7.34444602922480       -2.87869291149682       -0.82747956534274
C            6.32525328713568       -2.96656626745586       -1.81808486907661
C            6.51942145702349       -3.80424884775758       -2.94453401116241
C            7.73329722228275       -4.54051182228332       -3.06605021797806
C            2.97521875250194       -1.49460036413931       -2.36944803013528
O            2.80326609214347       -0.47414546090555       -3.34922062816398
H            0.40205372510922        0.36168805959504        0.15488096596395
H            0.66989012960012       -1.24069952682202       -0.52306384354148
H            0.86865823701642        0.19152207796421       -1.52883101656512
H            2.43550981351120        1.93988907561724        0.50729628698866
H            2.91906207802942        1.70331637780256       -1.17304518113157
H            4.05235688097712        1.34239202740979        0.12306969906120
H            1.99885551943408       -0.11607592682540        2.00696323831684
H            3.64856105533656       -0.63221373914487        1.66178936043345
H            2.30669587411893       -1.72859073920630        1.35583934312388
H            3.56447792098863       -3.26079527204131       -4.56896070045242
H            5.00592189722132       -4.85230705962863       -5.82698551209032
H            7.08100940904161       -6.10618185513454       -6.03329617335784
H            9.29862144262035       -6.73094915878551       -5.13283984303994
H           11.01934585788298       -6.54145554233597       -3.39511051289255
H           10.66780468871601       -5.08956546868608       -1.44965441158508
H            9.25392104350313       -3.50150741475405       -0.18346651109184
H            7.17244659232732       -2.23791057522838        0.01905318350290
H            2.05094992951395       -2.08413475640666       -2.29623157806528
H            2.29986951724143        0.27472636555799       -2.97169337307996
