52
 energy: -11.200925240465 gnorm: 0.000715568483 xtb: 6.5.0 (97a52f5)
C            1.04263280969596       -2.57728186502541       -1.51315081748236
C            0.34364992965239       -1.30869033829764       -1.16693787911651
C           -1.03809164664060       -1.24788208639178       -1.07633279623449
C           -1.67495491151430       -0.07348042383050       -0.74681561102318
C           -0.96802097842082        1.11050424656212       -0.51249220161283
C           -1.63614206830866        2.36628020599444       -0.14141192135185
C           -3.03815252745304        2.47052912166031        0.10875839662661
C           -4.14447624406851        1.72650451779927       -0.38732361846539
C           -5.29907364280079        2.30314750242697        0.13918203640421
C           -4.94294697755081        3.42285434741937        0.95025996672033
O           -6.06941767078105        4.01342558023547        1.47334951107553
C           -7.15530487815087        3.29411137610595        0.99280266138809
C           -8.52470299278697        3.47684362157503        1.21074304424362
C           -9.41848319408232        2.62027752845724        0.61909001270468
C           -8.98749831608490        1.56945467679501       -0.19469300766274
C           -7.64964352227576        1.36325765254717       -0.42958672408606
C           -6.73150019382560        2.22699794851554        0.16033713001442
N           -3.58177338953073        3.48860893019813        0.88772391441313
B           -2.73472091857960        4.54534100359852        1.59476185183328
F           -3.37325789867345        5.77133458664430        1.53352824531328
F           -2.50493683492526        4.14785057612999        2.89893717825315
N           -1.40448596711849        4.62240279655795        0.84840706995490
C           -0.91066439016077        3.57516257878460        0.07782203587824
C            0.32526684949427        4.02949922262827       -0.45767080491146
C            0.54117245957819        5.31490991462367        0.03651908257443
C            1.43653896610944        6.43600017601093        0.01963956911872
C            2.65695239885694        6.67293784673270       -0.60608353539222
C            3.27391710908459        7.88338984792656       -0.40142747694584
C            2.69234847386972        8.85527012893582        0.41678141959167
C            1.49080331978661        8.63527525115500        1.04152896084716
C            0.83628605340636        7.41363845354984        0.85364289180989
O           -0.36953758518790        6.95846914493540        1.36867954374381
C           -0.55576497778110        5.69024448467074        0.87129668426894
C            0.42759498478883        1.01192767778785       -0.54882034135255
C            1.06517558812364       -0.16172920451069       -0.87909617221242
H            0.33863424827082       -3.34231110302290       -1.84140922765665
H            1.58363654448675       -2.96802493609269       -0.65087057401547
H            1.75951243569796       -2.41776560818767       -2.31908412344089
H           -1.61408543448665       -2.13976721921022       -1.25542116579294
H           -2.73721215016718       -0.09465808484501       -0.61358002636107
H           -4.14770995543620        0.98047730676964       -1.16029070299430
H           -8.85255675389810        4.28586695831451        1.83846734899512
H          -10.47417063111786        2.75946639897423        0.78475513164909
H           -9.71452124439204        0.91230973844395       -0.64257962581036
H           -7.30543125028858        0.55701254973910       -1.05297171402747
H            0.92316447091708        3.55670286135323       -1.21549138201295
H            3.09547256627413        5.91647668987764       -1.23261328947062
H            4.21906964513052        8.08629375419402       -0.87734415422323
H            3.19896928459967        9.79551193483827        0.56015618473826
H            1.04060507079945        9.38027956970527        1.67270472624828
H            1.02525500226961        1.85137662117936       -0.25044439340531
H            2.14089093560769       -0.20273446093713       -0.90430131132938
