72
 energy: -14.672318669508 gnorm: 0.000479983085 xtb: 6.5.0 (97a52f5)
C            1.25958727553606        2.32939160309748       -1.99359777708069
C           -0.14070523271232        1.99316257764961       -1.61473347620397
C           -0.42364063847981        0.84734779454174       -0.88260760583055
C           -1.71457377569334        0.54163982783000       -0.51577767724373
C           -2.77671184573671        1.37751189105812       -0.86810061780029
C           -4.14715352378204        1.07049924981815       -0.48251486398688
C           -4.54610289057711        0.10972351646946        0.44358257731700
C           -5.94145543184228        0.13361881480558        0.56660460674947
C           -6.72803109279643       -0.71539432059580        1.45266785949769
C           -8.03851428469996       -0.39106372483562        1.79667231339172
C           -8.77395882117426       -1.18616640758707        2.64359653027051
C           -8.22873398097923       -2.34375841969958        3.18094826463975
C           -9.01091525217962       -3.19558620288636        4.11909387974628
C           -6.92020953657866       -2.67086182459347        2.85347788736675
C           -6.18246264533199       -1.87587076101777        2.00602701014888
N           -6.37948852145506        1.10461086710082       -0.30353331374879
C           -5.34329077654471        1.70241237128270       -0.97659227456000
N           -5.39942880525317        2.62781840692043       -1.93630991974086
C           -6.64352109513019        2.95481202838968       -2.29103412896473
C           -7.01265231622465        3.84121166224052       -3.36500301551836
C           -6.11001787007301        4.55281918687826       -4.25972726492885
C           -4.74568078232923        4.26665297198686       -4.27510387605772
C           -3.88477201471324        4.92598456722410       -5.11989433863077
C           -4.35512189125612        5.90020708244160       -5.99007471967398
C           -3.42420749960952        6.63922391113597       -6.88729995712404
C           -5.71122818060696        6.19862409715514       -5.97786481607403
C           -6.57535367992979        5.53733103171625       -5.13476571167660
C           -8.40458789377890        3.86731194792664       -3.41082566628926
C           -8.91933778786267        3.03868157764818       -2.40545357369550
C          -10.33260298001457        2.77918722770525       -2.15984578503008
C          -11.29437346359171        3.05843973933480       -3.13335396598306
C          -12.62764805880220        2.80368473238838       -2.90534548073043
C          -13.05512633583408        2.25937162080339       -1.70179950138024
C          -14.49936733367857        2.00044650368353       -1.44810784281205
C          -12.10712995910276        1.99566188451539       -0.72353616917945
C          -10.77496281387322        2.24937560876255       -0.94964440271361
N           -7.82746099885474        2.51417402471197       -1.75429299879389
B           -7.81786208713498        1.57005279373726       -0.54840736129488
F           -8.61005663526041        0.46614790248526       -0.82862563189161
F           -8.25361682484059        2.27247637934625        0.56795641515064
C           -2.48020124331600        2.53220119112423       -1.59107120880540
C           -1.18958037844491        2.83728056710679       -1.95312611713880
H            1.86500839151453        1.42879427595295       -2.10190099163038
H            1.72514904576067        2.95947597985241       -1.23502276109060
H            1.29177010187046        2.86475910213566       -2.94320738233086
H            0.38441415738039        0.19362983340769       -0.60192731657432
H           -1.91264753559953       -0.35736880580194        0.04044448260734
H           -3.88406898694023       -0.51917699800105        1.01091687440322
H           -8.46594625113817        0.50717465124735        1.39446953196344
H           -9.78276739902663       -0.91187329235396        2.90045709213213
H          -10.08276035304762       -3.03129652247375        4.00268364534768
H           -8.74754963554066       -2.97371886916430        5.15390772414886
H           -8.81703379245331       -4.25392478938327        3.94087351938775
H           -6.48371478038468       -3.56082860236225        3.27367458880090
H           -5.17404064701137       -2.15482220372959        1.75638639159893
H           -4.37586636972198        3.50739140017692       -3.61446377723267
H           -2.83418431640695        4.69128513052971       -5.11120778320046
H           -2.51100559273903        6.07017899410589       -7.06466845444001
H           -3.14364324657055        7.59740485399748       -6.44862184830199
H           -3.88600332455590        6.83398289900160       -7.85587273950822
H           -6.08341700421431        6.96195995681703       -6.63971600175533
H           -7.62118192136993        5.78816781455340       -5.13963301882699
H           -8.99434168492628        4.43231603622015       -4.10977635083741
H          -10.98338690324538        3.46474325272564       -4.07954762111882
H          -13.35547777468313        3.02445412005267       -3.66730062823775
H          -15.04471893384478        1.85743894700089       -2.38162179974794
H          -14.95497134139631        2.83643791249381       -0.91631404523071
H          -14.63603062914122        1.10234062226671       -0.84457951211043
H          -12.42656421759568        1.58832342574020        0.22044657181623
H          -10.05016166382101        2.04591099197920       -0.18502752547921
H           -3.28404738141803        3.19386818020330       -1.84957501958447
H           -0.98144010516902        3.73817620301690       -2.50452212863650
