43
 energy: -8.851067355602 gnorm: 0.000869045706 xtb: 6.5.0 (97a52f5)
C            2.50522278558866       -0.02410013380326       -0.08863467198666
C            1.03745008737358        0.20300890995042       -0.19385657694954
C            0.13102010353231       -0.73114788557222        0.28818407238056
C           -1.22547405389984       -0.50780775084455        0.20998073541304
C           -1.72085824503169        0.66801990530890       -0.35001997902975
C           -3.15918393872078        0.95705109625319       -0.46006561542472
C           -4.08436590413431        0.30606664691669        0.30129909431436
C           -5.47273425573156        0.57181842264908        0.20963319546436
C           -6.42481828843396       -0.13107217904237        1.04500788104456
C           -6.02440688158263       -1.09160177999508        1.99009732198626
C           -6.93605495365830       -1.74366270945871        2.77435160700901
C           -8.28753511528149       -1.46455143056201        2.64801606814379
C           -8.71146724335763       -0.53530753662099        1.73721333249860
C           -7.80223228678680        0.15144173554825        0.91746909418514
C           -8.23575119746536        1.13913128514870       -0.04933722652187
C           -9.58552940519030        1.46890552840264       -0.24507773286522
C           -9.96160682827667        2.41037314048711       -1.16565526466149
C           -9.00138101581857        3.06000092691627       -1.92793381444958
C           -7.68021688692518        2.75700695262005       -1.75892629884538
C           -7.26323080353881        1.79875007479555       -0.82722358379566
N           -5.91419925977323        1.48997535906851       -0.66540603195495
B           -4.94429449068520        2.28046636750217       -1.57209854661290
F           -5.27460942407914        2.00076633293270       -2.88689166621934
F           -5.10745594502203        3.62659068972137       -1.29368400337835
O           -3.53512494493273        1.91558471110216       -1.34632536675443
C           -0.80957728869450        1.59772448265605       -0.83679614890676
C            0.54583887176868        1.37179301205177       -0.75594132496278
H            2.73033919235524       -1.06562108528721        0.14281937150498
H            2.93616461554374        0.59533933162531        0.69863457918401
H            3.00608755870070        0.22277441911615       -1.02540629205902
H            0.50098102242380       -1.64238347885209        0.72652449745266
H           -1.90703430604244       -1.25914393676189        0.56732390449048
H           -3.73616837929211       -0.41574604096024        1.01103135442272
H           -4.98358788737753       -1.32725868204249        2.11066148978317
H           -6.60522509403371       -2.47532649371866        3.49340186999423
H           -9.00252662687189       -1.97976385714084        3.26843927018243
H           -9.76349591112882       -0.33274766049805        1.65670282278111
H          -10.34611944739330        0.97702684834283        0.33260023951429
H          -11.00402926424112        2.64840383910559       -1.30023378215652
H           -9.29927799592084        3.80103108938213       -2.65155212991455
H           -6.93292794679816        3.25680618602264       -2.34834676454875
H           -1.18695233182103        2.50389074308287       -1.27932380304818
H            1.23916961065512        2.10590460445152       -1.12965517670294
