37
 energy: -7.452265388263 gnorm: 0.000713681215 xtb: 6.5.0 (97a52f5)
C            2.52145883184870       -0.03645528275522        0.13503271285316
C            1.03441250266101       -0.03743930565912        0.06000358377250
C            0.28448577241656       -1.03944084275826        0.65884922016997
C           -1.09004837284531       -1.02842508150581        0.58391048602709
C           -1.76225422382701       -0.02000512287340       -0.09558566697509
C           -3.23212964683467       -0.05241048287197       -0.14623319395999
C           -3.93166377370820        0.64024762953458       -1.09173290406413
C           -5.34564199958109        0.60707133732198       -1.15152140678717
C           -6.09280280116793        1.31538479161636       -2.15149874523471
C           -5.49156543302344        2.10190664352686       -3.15609469566145
C           -6.24766227705293        2.75396473588375       -4.08654514318846
C           -7.63951620775927        2.65669522776477       -4.06400196256021
C           -8.25806895701454        1.90684516762916       -3.10858399474494
C           -7.50540060858810        1.22071587048629       -2.13322368487455
C           -8.12965173978163        0.43868829650814       -1.13827065074772
C           -7.37445238667365       -0.21051025546388       -0.21757443251135
N           -6.02113052190884       -0.12167580200528       -0.23628950144450
B           -5.33248694762964       -0.92209596727622        0.87928591098388
F           -5.76253326848450       -0.40576627760973        2.08765114861224
F           -5.71877755250450       -2.24299800070457        0.74500527220720
O           -3.86619617639430       -0.81828009062793        0.78451191349067
C           -1.00814943313499        0.99112296315742       -0.68619627553867
C            0.36656481924470        0.97782936517578       -0.60842572927073
H            2.89386721048885       -0.91307733685684        0.66573179198961
H            2.88208124832698        0.84912742483313        0.65925631713238
H            2.95979380769939       -0.04048182052683       -0.86347732227076
H            0.78800565129958       -1.83091972418857        1.18683489895135
H           -1.66864144501748       -1.80532008004417        1.05386901309726
H           -3.39094131855050        1.20097084555517       -1.82707077715795
H           -4.42168132838980        2.19323973167062       -3.19532906053224
H           -5.76896707416233        3.34951310304110       -4.84672219031310
H           -8.22411067152162        3.17646654561082       -4.80521599280328
H           -9.33148599998871        1.83014866935226       -3.08950522879667
H           -9.20290213729375        0.36306521061660       -1.11910895761991
H           -7.82569514306475       -0.81475388191958        0.55157224314450
H           -1.50244358822594        1.80326963431837       -1.18885813586542
H            0.93947119014362        1.76526216204425       -1.06764885950875
