37
 energy: -6.820799422665 gnorm: 0.000876047601 xtb: 6.5.0 (97a52f5)
C            2.56675563949728        0.20875717410277       -0.14535539925131
C            1.08086799033191        0.12697721671204       -0.09556335632707
C            0.43891552710112       -0.94518232596435        0.50752827353271
C           -0.93573190159636       -1.01349690842913        0.55300652076268
C           -1.71675258330097       -0.00308287080169       -0.00343629108883
C           -3.18741952703526       -0.02231345178466        0.01497216060856
C           -3.89247073607650       -0.87590337701634        0.81402724735175
C           -5.30767213239537       -0.88782687237425        0.82685795608835
C           -5.98670831932356       -1.76430528870449        1.66899734556063
C           -7.17518447476959       -2.27840792375167        2.15304814487757
C           -8.55905764272555       -2.16849531294090        2.00577714011093
C           -9.68970668057888       -1.54871250541076        1.36257225496898
C          -10.11321649980843       -0.59580545529843        0.44720113968330
C           -9.49895525160739        0.30994891159021       -0.38224009691422
C           -8.20684235426626        0.56316042829976       -0.59581474913872
C           -7.30227842555519       -0.09862245155621        0.04309469756939
N           -5.98546052794786       -0.05276057757152        0.02629728226204
B           -5.29861269917703        0.94376105589722       -0.91854946774109
F           -5.72269304767363        2.21499080103399       -0.58011849066587
F           -5.67438577810897        0.63257051054915       -2.21180951192906
O           -3.82950787826469        0.86400044022980       -0.79809375348538
C           -1.06885407024327        1.06353506277646       -0.61418858168980
C            0.30539799953947        1.12913888022828       -0.65796935448516
H            3.02955316669931       -0.65567687106288        0.33131865598993
H            2.92236145338117        1.10264735547231        0.36795098838730
H            2.91817929375014        0.24865436157783       -1.17678361776958
H            1.02976963165337       -1.73328856433989        0.94185281832849
H           -1.40681797956391       -1.86574005889739        1.00863554699494
H           -3.37779099404064       -1.54876803772843        1.47267756979214
H           -6.92198056165763       -3.02675061364023        2.89937349937642
H           -8.98928438502680       -2.89022227548131        2.70567186965953
H          -10.58507241172414       -2.02068723732092        1.76921985280302
H          -11.18986580318740       -0.53432141331742        0.34769028622568
H          -13.07400109024509        3.91656644662558       -3.85102722795855
H           -5.10342330949117        2.85225769012749       -2.64717360837953
H           -1.66657541653726        1.84301431602196       -1.05454603032745
H            0.79174177004115        1.96434974186426       -1.13207172485016
