45
 energy: -9.178115627787 gnorm: 0.000801734371 xtb: 6.5.0 (97a52f5)
C            1.67288362501821       -0.63105595827978        0.57125656034390
C            0.21342164468083       -0.40303134721967        0.38486007176559
C           -0.70491685738826       -0.90539877439599        1.29679044520719
C           -2.05253653755735       -0.67369210903950        1.14023864482341
C           -2.52319599800688        0.07382008890436        0.06768837232279
C           -3.95998113370310        0.32074327316522       -0.09148394864227
N           -4.35384919357707        1.01593781704451       -1.11945427663070
C           -5.71280639640917        1.14478341820750       -1.27366554850808
C           -6.20796549515398        1.65409293973973       -2.47137632085116
C           -7.56374208929906        1.78006220923753       -2.66403466230640
C           -8.43666407682443        1.39719162977269       -1.67281208698107
C           -7.95398320585758        0.88546821836345       -0.47099729135408
N           -6.60844966372640        0.79102203100049       -0.31683357686029
B           -6.07770310678038        0.41634324620979        1.04506053426187
F           -5.94362329012857        1.57144436178650        1.79591433693317
O           -4.77188818905427       -0.21858446065046        0.86156614731132
O           -7.04420303757388       -0.48329574222835        1.67455754409188
C           -8.36213055993848       -0.19361302182024        1.48200467292709
C           -9.29282156245077       -0.72282773362548        2.48450316760938
C          -10.65913321611808       -0.48304527904649        2.39061226714612
C          -11.52582514597578       -0.98179737041455        3.33604171777147
C          -11.05542683165978       -1.73703315240347        4.40219429289774
C          -11.98407391153216       -2.27157348260015        5.43608902140990
C           -9.69126510344760       -1.97417717810805        4.49665812961554
C           -8.82205356877930       -1.47628068463069        3.55279890528387
N           -8.85275979422536        0.49371178774696        0.49110024234068
C           -1.60305352733092        0.58456266589971       -0.84085367161584
C           -0.25612339946791        0.35178857160727       -0.68135230076180
H            1.86175966658065       -1.58020566549077        1.07362272143543
H            2.11373557790505        0.16361722903843        1.17384610667923
H            2.19192909309655       -0.65550597534345       -0.38732008714040
H           -0.35104995897404       -1.48009795001002        2.13530771892462
H           -2.76291710693824       -1.06535563275539        1.84771699043140
H           -5.51251453828182        1.94119143825453       -3.24026146802083
H           -7.94212979013489        2.17412238571797       -3.59283545420410
H           -9.50012334746203        1.48328418463157       -1.81040658630232
H          -11.02748839841196        0.10135450198190        1.56599554077579
H          -12.58111990642134       -0.78587325490254        3.25437191639131
H          -13.02525748157076       -2.09681244098002        5.16377613310786
H          -11.80569129477374       -1.79375828849683        6.39990609911098
H          -11.84903050006985       -3.34641270136091        5.56093553017327
H           -9.31642899004600       -2.55521176208408        5.32176762143586
H           -7.76439935921816       -1.66186317401203        3.62806350137076
H           -1.96240915168801        1.16861134124698       -1.66969438671794
H            0.44803510867823        0.75873980033879       -1.38656328700577
