41
 energy: -8.397534253046 gnorm: 0.000967543243 xtb: 6.5.0 (97a52f5)
C            2.19021804255694        0.85168577178118        0.24986250314859
C            0.73023218112406        0.64940481993616        0.37684462348041
C            0.08096303316355       -0.52260796365772        0.76634771399706
C           -1.27737083074963       -0.28440626124084        0.73517961612053
C           -1.48078005062183        1.04318027655195        0.33154709898117
C           -2.73527059034780        1.69325015197468        0.13329470091478
N           -3.96335013029838        1.10214653341561        0.03145949205547
C           -4.98136547869993        2.00291821327946       -0.22407307099957
C           -6.30606817225025        1.67337964958844       -0.40957469840124
C           -6.66519622625607        0.33569701976593       -0.35307182052428
C           -7.91517171338790       -0.31202932605401       -0.51553450942357
C           -7.70547538762184       -1.66616175434670       -0.36353614133452
C           -6.33189032963724       -1.88834142945022       -0.10603621247322
C           -5.64081579274393       -3.16862238712228        0.13652735146854
N           -5.75078742424282       -0.68245273018113       -0.10903762479617
B           -4.26353499481459       -0.40713249718309        0.16761226655963
F           -3.51224763072378       -1.11059722766752       -0.76324622761419
F           -3.99467607046764       -0.81360838314542        1.46774817634153
C           -4.34987958969177        3.30878043285932       -0.26927902285670
C           -4.87161703306302        4.58167359347850       -0.46108941639702
C           -4.01516684331658        5.66196371072251       -0.41851393181671
C           -2.65732285586888        5.48462150636106       -0.17827275787070
C           -2.12808211301982        4.22584893659753        0.01317639919866
C           -2.97080407741255        3.11843502411986       -0.04396964789711
N           -0.21627699743821        1.58991981941923        0.12217577217268
H            2.73310289795485       -0.07585325982354        0.43322827188811
H            2.54047798228336        1.59476877877352        0.96627984477808
H            2.44606342641027        1.19943396774059       -0.75096973458020
H            0.56103235790120       -1.44960831093717        1.03319882773873
H           -2.05651113218969       -0.98607165758815        0.97378504554439
H           -7.04133794671454        2.42994860272904       -0.60812858804330
H           -8.85390378311708        0.17449429674944       -0.71943095094440
H           -8.45816637997231       -2.43448256425276       -0.42603428445555
H           -6.33040788690400       -4.01046066636030        0.07147365077790
H           -5.18536514323709       -3.17321140276226        1.12702742356636
H           -4.84716984397443       -3.31719807848871       -0.59612215763145
H           -5.92525368531493        4.71166789406646       -0.63316559385576
H           -4.40445218888680        6.65599475694948       -0.56484812482564
H           -2.00985340425118        6.34492338191998       -0.13575337532335
H           -1.08552207681393        4.10225759543246        0.23362534096323
H           -0.03187611734496        2.51381116604915       -0.26308622763127
