52
 energy: -10.786505135996 gnorm: 0.000678549561 xtb: 6.5.0 (97a52f5)
C            2.18652867620113        1.07564156595495        0.45241163907570
C            0.78171421877482        0.63627422881931        0.36040743609405
C            0.35140289052808       -0.65739527652882        0.31269486140090
C           -1.05105167400615       -0.79528192996051        0.21730472448295
C           -1.72933669942784        0.39915568120813        0.18643189324548
C           -3.13459698667478        0.60582006074463        0.09400901645089
N           -4.13196341059999       -0.31958638755096        0.00984843020602
C           -5.38712468657407        0.23506705036466       -0.07425463275563
N           -6.56691722144514       -0.36772380442635       -0.16691825680733
C           -6.46609834284400       -1.69194960548804       -0.17572313064302
C           -7.57660289002676       -2.61606986692881       -0.26429750935030
C           -8.94886445329225       -2.41086384042378       -0.35966594207838
C           -9.77713869194705       -3.50953195469230       -0.42764159274392
C           -9.25792567110305       -4.80311184529902       -0.40314862402367
C           -7.90310773385349       -5.02088876214057       -0.31105633397258
C           -7.04809715601618       -3.92107958370606       -0.24066329926042
C           -5.60978241357672       -3.81448060429652       -0.14056281839730
C           -4.70239936827979       -4.91025527431412       -0.09620433695962
C           -3.33188614754500       -4.86925038149068       -0.00781681774072
C           -2.71912748426788       -6.14155410497514        0.01521082576045
C           -3.59656593879603       -7.18358850223071       -0.05247579503364
C           -3.23456952884082       -8.61295889894801       -0.04557131821196
S           -5.21699395984132       -6.57169360506786       -0.15105341020523
N           -5.34069321577503       -2.47852571654916       -0.10622024633186
B           -3.95628851160840       -1.83835181645735       -0.00215162971261
F           -3.20438896094205       -2.19966926741352       -1.10750642702498
F           -3.36105491194640       -2.23590533375273        1.18336825671310
C           -5.17781881375945        1.66700564561525       -0.04297764001571
C           -6.06544178090853        2.73606602044202       -0.10325964968566
C           -5.55977735632485        4.01678651727372       -0.06087993812107
C           -4.18804813725087        4.24464808392658        0.03902411115540
C           -3.29873809173879        3.19732845863408        0.09899144756933
C           -3.79168515345808        1.89312700474924        0.05948434788110
S           -0.58227517183144        1.70447145306476        0.27870086325361
H            2.76486497012613        0.40827415777004        1.09311904939282
H            2.24995046954039        2.08148970066930        0.86993150968947
H            2.65300323707322        1.08908873107728       -0.53370439557672
H            1.02719726628269       -1.49851622006939        0.34323820474349
H           -1.55441306920228       -1.74611613575007        0.17066251020915
H           -9.33966745137994       -1.40911706755221       -0.37875454096194
H          -10.84268646822535       -3.36716599758622       -0.50076724503195
H           -9.92891604211689       -5.64449170148583       -0.45767572113111
H           -7.50384493571608       -6.01703817452738       -0.29277010300103
H           -2.78400196388635       -3.94343981184335        0.04015679149663
H           -1.65115052339556       -6.28248439141979        0.08345847833325
H           -2.65535279244114       -8.86364205162154        0.84444984585704
H           -2.63789049245996       -8.86705626785937       -0.92299568467655
H           -4.12835068171892       -9.23860879102016       -0.05302596509453
H           -7.12172237370786        2.55024479912674       -0.18287343122486
H           -6.23457206099460        4.85553725492468       -0.10699914832904
H           -3.81982408042134        5.25689774313875        0.06894406029697
H           -2.24262822836194        3.37325881586301        0.17464728079813
