54
 energy: -10.079148117339 gnorm: 0.000493201518 xtb: 6.5.0 (97a52f5)
C            1.12235906115650       -0.16821188726386        1.33394248548280
C            2.51952542200775       -0.11531489319191        0.70261997150508
C            2.41739676063740        0.45636015116383       -0.71441719321356
C            3.43910502894855        0.76029620941969        1.55825999784167
N            3.07731326690217       -1.48865671066852        0.64315082559341
C            4.33758128469297       -1.76021760297833        0.13460689601437
O            5.01887493286181       -0.92756296337985       -0.44808548203499
C            4.85994140930641       -3.13748328636190        0.36428015526070
C            4.40465742122118       -4.22053927074200       -0.38966863103995
Si           3.25046391269668       -4.00385311599783       -1.83827949703610
C            3.18695982693020       -5.56384642308215       -2.87459158659034
C            1.51666042455293       -3.63370488588094       -1.23735735089988
C            3.84960206836390       -2.61808323263201       -2.94570959754326
C            4.85171088550561       -5.49413535566088       -0.12699957042776
C            5.78480788684346       -5.74751311279171        0.88289281728524
C            6.26248874885172       -7.06357548230811        1.16962674794325
C            7.17280739013942       -7.28189366069174        2.14563886045441
C            7.69215056267432       -6.20328484424009        2.92872396079182
C            8.63439847841905       -6.39959773997009        3.93995339749326
C            9.11242499213580       -5.33449463306609        4.67569263685712
C            8.66928409405020       -4.05112630874699        4.42985477031232
C            7.72740438858731       -3.80053140328994        3.43007138106274
C            7.24366652313528       -2.48575367343718        3.14409115152803
C            6.33278161615709       -2.27345364333308        2.16793260696758
C            5.81551131427204       -3.34681374512866        1.38122848700035
C            6.27585611897897       -4.65926258021599        1.64001275391961
C            7.23452836560704       -4.88824553211555        2.66940729120692
H            0.67889413456004        0.82577624231016        1.38319160097723
H            1.16921824796156       -0.56783800846504        2.34611639242844
H            0.45937276923889       -0.80588288789401        0.75080239659531
H            2.01001755978775        1.46656122307836       -0.70242241292955
H            1.77311889895289       -0.16429294064006       -1.33509490794638
H            3.39974970815546        0.49264350040424       -1.18165993372989
H            3.05787097387607        1.77830446277295        1.63105586530484
H            4.43685250479292        0.79965647923676        1.12409071852219
H            3.52692663897200        0.35528909672443        2.56545885949883
H            2.63996765978384       -2.14855934895840        1.28597727319062
H            2.73806379088694       -6.37709126079350       -2.31147873585693
H            4.18917225127287       -5.85344764762241       -3.17771618761921
H            2.59157900369832       -5.38971397643617       -3.76627993686649
H            1.21005631131158       -4.37643375175791       -0.50641475825652
H            0.82061244093442       -3.65303283630219       -2.07100262431401
H            1.48147470509840       -2.65172408131759       -0.77734392157847
H            4.84053824836989       -2.85114262244464       -3.32420408400847
H            3.90029502915109       -1.68755145156198       -2.39024273750038
H            3.17272826319268       -2.48881802362177       -3.78525538986888
H            4.48054461726303       -6.31844112709899       -0.70892121159744
H            5.88194046557175       -7.88623817676932        0.58913842156581
H            7.52211237455506       -8.27951282197880        2.34816034221073
H            8.98626452815833       -7.39696508255232        4.14009206716132
H            9.84052833018939       -5.50723622606030        5.45146654958606
H            9.04836654887158       -3.22718075359068        5.00952417683825
H            7.62209359898526       -1.66056563155600        3.72210044644939
H            5.98663821075018       -1.27690272054574        1.95897344601011
