46
 energy: -9.312947816077 gnorm: 0.000484693685 xtb: 6.5.0 (97a52f5)
C            2.56276136281083        0.60813920710503        0.30217008076565
C            1.09463332466122        0.37626212683191        0.21457293706754
C            0.58472524961146       -0.89051289775452       -0.02595765767845
C           -0.77490079249431       -1.09719119840863       -0.12639346108973
C           -1.65952258562350       -0.04077669243818        0.00740940540502
C           -3.15487382115079       -0.24387786773921       -0.10305482626166
C           -3.69247106679824        0.47237465894292       -1.31856582435344
C           -4.33139689511906        1.66719811320240       -1.17372738375260
C           -4.77697637221651        2.46829495073343       -2.35814202494456
C           -5.02540724280694        1.59979070164687       -3.60358987214470
C           -3.85342767219537        0.63970366872773       -3.86012609620451
C           -3.44533575594708       -0.11971177943029       -2.62426054521717
O           -2.92096416802616       -1.21131982415492       -2.73231810074006
N           -4.61527268979639        2.13583685125579        0.09620747476048
C           -4.46864426599930        1.37635638793944        1.25952310848225
C           -3.83872114139068        0.16740307676963        1.17835410107312
C           -3.74478664221684       -0.70860911238602        2.33080884874495
O           -3.19265996008115       -1.79747670004660        2.20014662492459
O           -4.27373542298480       -0.30404104319961        3.53988985334373
C           -4.88913906428099        0.93562002803112        3.62797179118413
C           -5.41016313514142        1.33192548302836        4.86470939520466
C           -6.03301590908303        2.54190746634918        5.01317044056351
C           -6.15295787035233        3.39735406847159        3.92923642524005
C           -5.64919957915289        3.03377446699478        2.70595320936815
C           -5.01111595597728        1.80317638657931        2.52643110955211
C           -1.15103803925390        1.22496109909949        0.23683082357906
C            0.20713339108018        1.43339384534192        0.33754538904820
H            3.09947125029382       -0.32108581436056        0.49541014174285
H            2.80081519624284        1.30164707133302        1.10929267798978
H            2.94342760436040        1.02922364059662       -0.62881067436587
H            1.26380867706753       -1.71847938553649       -0.13591008946275
H           -1.16033001907505       -2.08467753426205       -0.31360096418135
H           -3.34431535569165       -1.31859423482997       -0.24572322391007
H           -4.01421363986605        3.22385921679056       -2.57737845520128
H           -5.68315456959490        3.02629739981157       -2.09400800646597
H           -5.20408581487714        2.23216414239000       -4.48398703036560
H           -5.94623647055933        1.02035382872291       -3.46526627820988
H           -2.98621651614250        1.19914080742115       -4.22556323071872
H           -4.10206365355925       -0.08282412915310       -4.64562080215380
H           -5.09756917980539        3.02545058021121        0.15882727731549
H           -5.30991332944453        0.65936385702145        5.69810826006903
H           -6.43015239511788        2.83061491771227        5.97248695721041
H           -6.64264425264721        4.34971237382372        4.04968773662612
H           -5.74593948773773        3.71089596326789        1.87768230301428
H           -1.83873755345655        2.04648645579050        0.33374274808048
H            0.59029222953335        2.42423537175078        0.51147542706885
