51
 energy: -10.698438789475 gnorm: 0.000527301686 xtb: 6.5.0 (97a52f5)
C            2.64420490018079       -0.58173462691988        0.53055357099795
C            1.32993132537473       -0.88073360173628       -0.10303922832951
C            0.45458454838478       -1.77792632489691        0.48798439734609
C           -0.76899087792532       -2.05432589817450       -0.08538582806759
C           -1.15165466028566       -1.43728428515375       -1.26502985097900
C           -2.49768937699742       -1.72636526264470       -1.89553316602116
C           -2.35955561061982       -2.44498084364899       -3.25325264262280
C           -1.99824436499089       -1.49705364062718       -4.36591974953842
O           -1.28344515592338       -1.90695829482838       -5.25495462506071
O           -2.49418312810931       -0.20960072550368       -4.33310954379561
C           -3.25380390408252        0.21547120974181       -3.23999148120966
C           -3.30866083429625       -0.47012644427949       -2.05016087456071
C           -4.08479373707250        0.00279411710251       -0.94256299608990
N           -4.07992163871523       -0.71564417483375        0.17523891615295
C           -4.81236519353722       -0.21196140269743        1.17760111219925
C           -4.86946522074612       -0.90505179256743        2.40675995043573
C           -5.59698973569260       -0.43000416619682        3.45464405828621
C           -6.31445969852083        0.77337706399555        3.34901660064930
C           -7.12727278262634        1.26624874350428        4.49443069890558
C           -6.28262911949190        1.45695151850482        2.16334802861942
C           -5.54168816079765        0.99901883312001        1.05241204488981
N           -5.54987037992280        1.71763780979754       -0.08297226887913
C           -4.82254845943200        1.21662301449543       -1.06724865043469
C           -4.76598893558931        1.93764270782388       -2.32138323726521
C           -5.47197249059574        3.13199734156974       -2.49623902832875
C           -5.41130465437241        3.82002942520198       -3.67923018552025
C           -4.64052957609131        3.33501395397329       -4.72808231974587
C           -3.94148165163946        2.16598508153632       -4.58198142212940
C           -3.99057687354288        1.44739747876780       -3.38568745837903
C           -0.27924749096602       -0.53802404936283       -1.85320955556466
C            0.94389094291647       -0.26088003817903       -1.28142894354103
H            3.18462778229960       -1.50160829116803        0.75650334453204
H            2.50811844730700       -0.03209786000947        1.46254486165076
H            3.27395762747201        0.02062276342986       -0.12485645372132
H            0.73982600473679       -2.25917062613962        1.40778446822649
H           -1.44092011326179       -2.74970695697210        0.38722605531115
H           -3.05280841559474       -2.38318242168303       -1.20678410374564
H           -3.29023750570310       -2.95586015532446       -3.51712092626149
H           -1.58540559999664       -3.21519269783286       -3.18768516081335
H           -4.32053150922137       -1.82596451705551        2.49539633148086
H           -5.63163985249854       -0.97705482612771        4.38095528117561
H           -8.11051780219287        0.79495746423487        4.50106023218890
H           -7.27102157857963        2.34578706194342        4.44085144232491
H           -6.64043399468606        1.04432169759603        5.44454208548970
H           -6.83607325088170        2.37232731090194        2.06165549959813
H           -6.06655953492552        3.50232469436895       -1.67995163579820
H           -5.96066762729682        4.73955946798654       -3.79688890931678
H           -4.59301100760681        3.88024420073827       -5.65627421783980
H           -3.34096070648893        1.78067434552828       -5.38795248117535
H           -0.57204862745858       -0.05367765997065       -2.76849634201321
H            1.61034926030580        0.44246427869310       -1.75027569371710
