48
 energy: -10.244630766485 gnorm: 0.000553356464 xtb: 6.5.0 (97a52f5)
C            2.28509946921833        0.08292982387218        1.05973505765114
C            1.03073751302636       -0.35009885760683        0.38352808419134
C            0.18596126986677       -1.26473386618357        0.99239043881318
C           -0.98486680047353       -1.66222528826987        0.38135973966887
C           -1.34457423046646       -1.15132784193821       -0.85495771667281
C           -2.63473576888385       -1.57173946396782       -1.52727741898889
C           -2.37860090969627       -2.45196882353156       -2.76725458842904
C           -1.96222419498365       -1.63948039948213       -3.96445663665933
O           -1.16793950335989       -2.12917425582813       -4.73794328661617
O           -2.50028085106491       -0.38050532025598       -4.13593361367825
C           -3.34689213205968        0.15265379012378       -3.16090858034823
C           -3.47016869482287       -0.37817673346745       -1.89916384190812
C           -4.33687971073601        0.20402880450946       -0.91822521564807
N           -4.39959563084146       -0.36868985242638        0.27916418043255
C           -5.22380969560340        0.22526381720833        1.15263246817040
C           -5.35523729639744       -0.31344713191010        2.45250402422981
C           -6.18050749991802        0.25573833418520        3.37355634375770
C           -6.92075203070578        1.39456181325574        3.04560123314588
C           -6.82093396444406        1.94253621122127        1.80262735785845
C           -5.97564320799978        1.38324256259649        0.81967854741385
N           -5.90787691327853        1.95892760650105       -0.39223338792683
C           -5.09098867039569        1.36823949407855       -1.24782004608659
C           -4.95473838021159        1.93170691456615       -2.57419259128730
C           -5.66500824785186        3.07766683715868       -2.94486726246214
C           -5.53475681735868        3.61220893371292       -4.19942074023199
C           -4.68836188272536        3.01683889246409       -5.12603844276004
C           -3.98126926015267        1.89384701935996       -4.78640280646182
C           -4.09874545426870        1.33233858767281       -3.51332013163286
C           -0.49836548980064       -0.24157767336034       -1.46545309441230
C            0.67120639270259        0.15772892109361       -0.85536885603381
H            2.88532294351112       -0.77884395226568        1.35340837267857
H            2.06082177422753        0.66049216613378        1.95712538322202
H            2.89549748693261        0.70558040381025        0.40506315314111
H            0.45354508269481       -1.66338161235764        1.95613585621055
H           -1.63279274910865       -2.37126516539107        0.86735933562568
H           -3.21669584581885       -2.15472515922932       -0.79562021425067
H           -3.27340854355267       -3.02541702551921       -3.02663558929879
H           -1.59049728187391       -3.17886685033389       -2.54946869699435
H           -4.78256716695708       -1.19013459235129        2.69922925079024
H           -6.26520341419846       -0.17077223594653        4.35943573959481
H           -7.57260566571595        1.83779133946625        3.78042094383156
H           -7.38937930307327        2.81870979754614        1.54479249128376
H           -6.31801622843651        3.53421164056541       -2.22215082857397
H           -6.08865459766335        4.49623965727401       -4.46919324945778
H           -4.58844593608712        3.43989417840646       -6.11206629085530
H           -3.32127292802603        1.42452998511618       -5.49555820838598
H           -0.76868253903568        0.15165713442107       -2.43017035744930
H            1.31575350587673        0.87040743529469       -1.34078630821184
