50
 energy: -9.946402329078 gnorm: 0.000666402828 xtb: 6.5.0 (97a52f5)
C            2.53930298156886        0.49015509375952        0.81198421997979
C            1.12359111986225        0.34113680225657        0.37549783198861
C            0.82490769149409       -0.08634934153499       -0.90880581351241
C           -0.48366484400981       -0.24930376896183       -1.31340819265937
C           -1.52640274280086        0.00197690450502       -0.43759268011626
C           -2.95931264425437       -0.15971940956927       -0.86539091963712
C           -3.64239510726009        1.17428993951906       -1.19550464452989
C           -4.72940827913849        1.29001846119829       -0.16018565046634
C           -5.61964823279482        2.42285527982707       -0.02155699634807
C           -6.58432972420946        2.43055423391840        0.98765853096346
C           -7.44365049010972        3.48934074675853        1.13946239214670
C           -7.37394554159407        4.59190001474619        0.28318477823097
O           -8.22613411320807        5.67638634474903        0.40748026592813
C           -6.40776907430648        4.58539814378219       -0.72620861115498
C           -5.54862059312817        3.52648123722066       -0.87664205052548
N           -4.78173371861615        0.24455872277529        0.61193593139969
N           -3.82435273560929       -0.64185392791509        0.24234349678235
C           -3.69116405456642       -1.92096348664271        0.84063080018804
C           -4.62666070336465       -2.32404054126911        1.78681765754326
C           -4.53067193155104       -3.56110635927641        2.38495622157315
C           -3.49796971056178       -4.40722849864835        2.04946023203529
S           -3.37244033863088       -6.01408009721732        2.83337661058850
N           -2.49839725814047       -5.57327304878816        4.22162379536509
O           -4.74284101478806       -6.47689741842472        3.22279220963670
O           -2.53446444743319       -6.91191475821501        1.97528736986815
C           -2.56156010812974       -4.02324971203224        1.11610916589827
C           -2.65314219844958       -2.78888883746113        0.51200767536023
C           -1.23050868063514        0.42997257495786        0.84373979715043
C            0.07700874103866        0.59272213116738        1.24940374815207
H            2.97160156590065       -0.48037507300544        1.05708350635966
H            2.61687735527768        1.12544076261614        1.69462812987971
H            3.14489924855678        0.94113622416877        0.02540047050493
H            1.62999458668940       -0.29173533744144       -1.59323515553291
H           -0.70375535118773       -0.57406372986195       -2.31580409146183
H           -3.03530031141747       -0.87322351810973       -1.69699958861716
H           -4.06307459914076        1.18884871984655       -2.20667616732551
H           -2.93638574618123        2.00577958684800       -1.10891087309393
H           -6.64212517537757        1.58394144986930        1.64912104696666
H           -8.18031471206459        3.47895488486118        1.92240917616319
H           -8.84360655064881        5.53822739406882        1.15076403008931
H           -6.35428638413609        5.43375590120399       -1.38496599519258
H           -4.81180361713363        3.54006153353065       -1.66042754482964
H           -5.42733506009565       -1.65172640109295        2.03865600690581
H           -5.25929566349190       -3.87833035991555        3.11242613616696
H           -3.01717807790217       -5.84441828544405        5.02304510090370
H           -1.63882580069799       -6.06755770666597        4.21523487763013
H           -1.76178689069846       -4.69950874917666        0.86385899270743
H           -1.91453422346699       -2.48310441151150       -0.20624700846735
H           -2.04132807226510        0.62629315463098        1.52309899398948
H            0.29370123279804        0.91539653541213        2.25315278441644
