97
 energy: -17.222927859261 gnorm: 0.000647986783 xtb: 6.5.0 (97a52f5)
C           -1.82417208624519       -2.34488244671146       -0.93456443125458
C           -2.00634622779999       -0.86856529137899       -0.99662815368185
C           -1.01651355715486       -0.05537958032172       -1.52626863184578
C           -1.19123379617743        1.31085315999727       -1.60335111485106
C           -2.36229212596751        1.89972592623536       -1.15482765766784
C           -2.56148420413062        3.37870594158213       -1.23581555152106
N           -3.29362435608953        3.90973276780759       -0.07473224727022
C           -4.66852347894637        4.13156775506037       -0.00794737331627
C           -5.53641073499541        3.95097022844479       -1.05127746086536
C           -6.91824285393895        4.18675399416142       -1.00792323997819
C           -7.80403612266760        4.03806858362194       -2.05709426463936
C           -7.34982320265362        3.62268865205067       -3.43036981442441
C           -8.31843162909594        4.05936342799718       -4.54486407170507
C           -9.78954838008059        3.76022204207243       -4.20224089492458
C          -10.16441667430174        4.15138609253315       -2.79792922499013
C          -11.47540224349409        4.38451080168423       -2.43155145825538
C          -12.59829298359627        4.28294584608162       -3.26552743686449
C          -13.88749245244644        4.55812546418026       -2.89565937012330
N          -14.99011021041360        4.46644601125849       -3.74460930671555
C          -14.94142975434212        4.16919392994054       -5.18519700228881
C          -14.85891708182202        5.40723616121741       -6.01895161540182
C          -15.57780981537525        5.52458431557813       -7.19752945575386
C          -15.49374987074694        6.67044197160563       -7.96116403404197
C          -14.69169300248509        7.73005297457391       -7.56642297268183
C          -14.58171442081294        8.95684167646319       -8.40275707999970
C          -13.96208907588295        7.60491141738716       -6.39483416268847
C          -14.04708478555680        6.45916270656140       -5.63268348334104
C          -16.18276484104474        4.89447998901194       -3.11897651891728
C          -17.46952471716599        5.02153646914374       -3.62715038207931
C          -18.46881757534594        5.48125079864866       -2.79615115132749
C          -18.19573946603541        5.81550217474369       -1.47794285906252
C          -16.91258515964593        5.70040639160217       -0.97083227685297
C          -15.90678286883128        5.24116936123589       -1.79533162469129
C          -14.41097742221241        5.05419108370895       -1.53701921331330
C          -13.78963642557789        6.40680914111600       -1.15480937044216
C          -14.20195107048675        3.99966291438813       -0.44050578318916
C           -9.16660781063227        4.28078414510423       -1.81782638463448
Cl          -9.64260706497518        4.76154266785352       -0.22787605085533
C           -4.97575285511082        4.58762099059706        1.42874109530941
C           -5.92228703250327        3.60735580436766        2.13900842845295
C           -5.51781952321261        6.02416787178537        1.45351530570299
C           -3.60314905744520        4.54250411260898        2.10244332200258
C           -3.22794894423177        4.81215010501595        3.40200946020050
C           -1.90010350846946        4.65765925460244        3.76246268327402
C           -0.95927200510278        4.23288061676559        2.83592933963722
C           -1.32582906951332        3.96025431546757        1.53526810089451
C           -2.65562273842867        4.12225796589390        1.16771974479574
C           -3.35723549992620        1.08613842986645       -0.64220301982275
C           -3.18424791040743       -0.27957158675653       -0.56423183968484
H           -2.12828053116378       -2.81152208904873       -1.87185271351798
H           -2.41925655391887       -2.78176392791893       -0.13215588499034
H           -0.78102979175413       -2.60413014676377       -0.75137102821748
H           -0.10414505812611       -0.50301551009163       -1.88097819766551
H           -0.41463375507049        1.93191530440273       -2.01538986867113
H           -3.09053091909376        3.63866752110053       -2.15444341540497
H           -1.59649868601659        3.88848319140399       -1.29065673999702
H           -5.12918080744605        3.58549022716489       -1.97417217224497
H           -7.34246902993048        4.51243904051096       -0.07911676177339
H           -7.22854180694476        2.53367045672602       -3.44660732916430
H           -6.35452505367275        4.03909809378713       -3.62465332407685
H           -8.04526750695752        3.57803670410715       -5.49387395438150
H           -8.20189898921879        5.13548506457769       -4.72133708718560
H           -9.99323215315074        2.69170136861537       -4.33527161546744
H          -10.44487554269318        4.28120654615002       -4.91004399496356
H          -11.63421390688842        4.65919233450239       -1.40778313829690
H          -12.43228012375690        3.96505773613946       -4.27676835510426
H          -15.83504402865383        3.59634200720208       -5.44446679356182
H          -14.09450768244233        3.51375307787106       -5.39648582426935
H          -16.20595188938761        4.70990329629316       -7.51410116236957
H          -16.05394133324329        6.74968887425770       -8.87684686549483
H          -13.75037378467067        8.87354609237880       -9.10327047883935
H          -14.41475070599937        9.83958405378878       -7.78484996568772
H          -15.49241209946593        9.12383711171753       -8.97858576299373
H          -13.32452380555654        8.41422161976110       -6.08327745920464
H          -13.48285738823787        6.37356874533293       -4.72143177043087
H          -17.67025393169746        4.77194391388206       -4.65324856722857
H          -19.47209740489386        5.58385990365287       -3.17546724235653
H          -18.98904733395342        6.17363141943918       -0.84300182553073
H          -16.69259722962283        5.96786291050267        0.04755920798362
H          -13.95985173566073        7.13855697782160       -1.94327263809958
H          -12.71711514004990        6.33298229669001       -0.99260738957648
H          -14.23725407195538        6.79109919817788       -0.23950623927041
H          -14.65629463989298        3.05388416181876       -0.73240409963847
H          -14.66125431892825        4.31846961153171        0.49399166530744
H          -13.14672317808977        3.81919365045223       -0.24855615622861
H           -6.90556023805665        3.58038447020198        1.67577761471470
H           -6.05549637710714        3.88871436482498        3.18254626216518
H           -5.51211520028665        2.59875001013366        2.11400408417366
H           -6.48272706502633        6.10144060577248        0.95761214172142
H           -4.82727495093367        6.69870031247263        0.94926045141799
H           -5.64036331042090        6.37276190671540        2.47788419913637
H           -3.96322651371155        5.13432730753728        4.11796094732221
H           -1.59566299119199        4.86667725801639        4.77458381367024
H            0.06847524506468        4.11264847404333        3.13630342183522
H           -0.60574751704587        3.61914662818855        0.81369341906615
H           -4.27093603317150        1.53668470003250       -0.29777356433152
H           -3.96727543655513       -0.90140442220795       -0.16599733648317
