68
 energy: -11.089578623346 gnorm: 0.000305813162 xtb: 6.5.0 (97a52f5)
C            1.90112035901368        0.18199888102889        0.85668260191124
C            0.52161950309722        0.21012489405861        0.29881852376499
C           -0.21171749921372       -0.95863580628405        0.21889405953954
C           -1.49594578430252       -0.96990605646308       -0.28001621261973
C           -2.10335270218436        0.20608304978013       -0.72781963864782
N           -3.42167522896276        0.20251119820523       -1.22993308748117
C           -4.15957179332506       -1.04342064886067       -1.43394624643982
C           -4.11581957826399        1.44550841457601       -1.56394117758017
C           -1.36717601800314        1.38205282373981       -0.66293948115946
C           -0.05861228830121        1.41900935840228       -0.16309340250748
C            0.69179803732511        2.70202736648056       -0.13366204715313
C            0.24156672762723        3.72905911196704        0.78273400986929
C           -0.90459387467671        3.50180657780707        1.57352010367805
C           -1.38947029559389        4.44528990808028        2.43780120267830
C           -0.75591813612916        5.68555648195893        2.58437706028730
N           -1.25558588315008        6.66429311188199        3.45414039036554
C           -2.49766938412891        6.46330216214934        4.20071041261446
C           -0.57231173205389        7.94521563750152        3.63746655332680
C            0.40184809791480        5.91057217305056        1.82641668840146
C            0.88531593035369        4.96806551548599        0.96130195511751
Si           2.48220589077960        5.33517046502651        0.12349872488732
C            2.38444950355239        6.97180228024033       -0.78823666673508
C            3.88136668825742        5.30691700500861        1.37057774241152
C            2.68060947497574        3.94847661150309       -1.06823822254432
C            3.70577844325197        4.03496749697525       -1.96908348307193
C            3.92466667511737        3.03708291282495       -2.92929115782397
N            4.97101068554111        3.13970283701187       -3.85590847339199
C            5.90679397390488        4.26428511839142       -3.83095455836663
C            5.16476794611497        2.13995099272032       -4.90631453939245
C            3.05303747095981        1.94086264319967       -2.92854007920237
C            2.03077390549826        1.85196104261637       -2.02350268377859
C            1.80215985274594        2.84956282391968       -1.05233635327271
H            1.96917680155773       -0.50931566653166        1.69696126178976
H            2.20244686834188        1.16614445066474        1.21562913838557
H            2.61925829535580       -0.13506974230894        0.10027319355979
H            0.23559829150168       -1.87583394443794        0.56171447844655
H           -2.04392281961555       -1.89402392157657       -0.31467474293059
H           -3.55464088894661       -1.74742822319000       -2.00135246584806
H           -5.07745178994497       -0.86607203643940       -1.98986420163641
H           -4.41693943750215       -1.48503948861740       -0.47356878572859
H           -4.04214302757647        2.14881434230251       -0.73719587446680
H           -5.17062957694769        1.26291691297285       -1.75635849214012
H           -3.67451203107016        1.89098113473223       -2.45296499072349
H           -1.79736851685066        2.29705038126645       -1.02343717886649
H           -1.41195178463561        2.55776350052771        1.49255452639434
H           -2.26963409988183        4.23233511907302        3.01725864108210
H           -3.31226412806236        6.24129160633305        3.51454588822111
H           -2.76495236200792        7.35318187129936        4.76590155668382
H           -2.38270128724150        5.63696404287924        4.89892625953243
H            0.44469508629936        7.77788572011095        3.98569226770147
H           -1.08446259496222        8.56218230810942        4.37211177768252
H           -0.54285504427896        8.48934952686523        2.69586869418136
H            0.93041809751574        6.84071634524283        1.92773653363757
H            2.20148299718113        7.78270206780318       -0.08986255861064
H            1.57461522271278        6.94147969524435       -1.51096746000612
H            3.31500169044062        7.16709934371392       -1.31243319784402
H            4.83277962938807        5.46088714660262        0.87052835019523
H            3.90318611877203        4.34677620586087        1.87719053901545
H            3.74144625959786        6.09017231822732        2.10938398946103
H            4.35161458320222        4.89329121577281       -1.93811288986662
H            6.38908716532650        4.32538863314310       -2.85765738187395
H            5.37650401882722        5.19393353840835       -4.02623121750988
H            6.68128078486620        4.14784705835035       -4.58547337944332
H            5.40550319143517        1.17618083512294       -4.46280466872317
H            5.97680845343840        2.42237854469631       -5.57233288262710
H            4.25840492608644        2.04410663473913       -5.50043162014858
H            3.19184220860535        1.15732675288228       -3.65144831972168
H            1.37175973133812        1.00295938609315       -2.05714730488347
