73
 energy: -20.511535405378 gnorm: 0.000647005455 xtb: 6.5.0 (97a52f5)
C            3.16026685316396       -1.14779170275442       -0.53544268253662
C            1.72893895727993       -0.76537435498018       -0.63399043362934
C            0.71690752116188       -1.73193330333780       -0.47364268541666
C           -0.63245925718358       -1.37618482839933       -0.53061220641983
C           -1.00932455180477       -0.04935244205930       -0.74836771585515
N           -2.39128808389100        0.32577977349927       -0.80375369462685
C           -3.38760444377405       -0.50624474269395       -1.48155650824965
C           -2.99387290421103       -0.81879358250810       -2.92127159261691
O           -3.02751730286657        0.12920377064352       -3.71841186003451
O           -2.68241686834950       -1.99372816709176       -3.16651990964381
C           -2.86240812877919        1.57899056188123       -0.20658551009814
C           -4.00489672741774        1.34345902056071        0.77590525206461
O           -3.68529693996589        0.93880993258671        1.90265420986996
O           -5.14916882185387        1.57308579708564        0.35776308951275
C            0.00242806750790        0.91783687203467       -0.90606887097012
C            1.36672332872786        0.58014018801212       -0.83979053883729
O            2.37703612645523        1.57388144337278       -0.98246888208913
C            2.28223242413642        2.59917708046548        0.01055176719722
C            3.49653890392103        3.52711637239666        0.00557889084347
O            3.39274943076847        4.55161125347112        0.99759187818281
C            4.43985196688181        5.49699152259052        0.99849206439052
C            5.55201109980961        5.41249115355077        0.17218970506327
C            6.56861808417813        6.38762007455729        0.17721209549912
C            7.71558915038106        6.28148735959803       -0.69735754846017
C            7.97665907432958        5.26164425498316       -1.62116490331289
C            9.19603617045148        5.55083392488607       -2.26441588390045
C            9.93336660923128        4.87815525612524       -3.27440957839623
C           11.11489122280221        5.42582107630894       -3.70425094693580
C           11.61555006137041        6.63796044790335       -3.17007027245486
C           12.89565752896418        7.19968107921476       -3.66459237251245
O           13.29318976348526        8.27057741321708       -3.14925779148558
O           13.49427769368083        6.56630392047575       -4.56498419073696
C           10.89091905775162        7.30721230564762       -2.17122740878562
C            9.68973923164468        6.76687796434711       -1.72371241035726
N            8.77555564351502        7.20096241827712       -0.76633005333157
C            6.43287470552749        7.47156367172756        1.05533778909463
C            5.34120198868899        7.56952295274900        1.88901623451676
C            4.33681822113471        6.60372700986803        1.88893082912746
N            3.22185498729601        6.71117148803512        2.77541355809959
C            2.69609611752688        8.01144474062113        3.20397626994554
C            2.36374692170417        8.92797491537720        2.03091873468230
O            1.37488134465119        8.61641636903155        1.35266145580406
O            3.10568277036467        9.90795351778389        1.86789553854374
C            2.82372841492772        5.56867954325761        3.60269085326939
C            3.22368607040215        5.76142675644657        5.06107832376874
O            2.33325139013073        6.15389755992096        5.82891717150156
O            4.40422880869528        5.51392012292298        5.34440492295575
H            3.35002471350278       -2.10314495922527       -1.03273182528429
H            3.46703257362423       -1.24398604976175        0.50957583283822
H            3.80047038664135       -0.39613182920779       -1.00431491189075
H            0.99740260110230       -2.75808596167878       -0.30051415735788
H           -1.39490294876083       -2.12510114526192       -0.40067106171415
H           -4.34962870738550        0.00950932402237       -1.47853483951798
H           -3.52482414478013       -1.43353367733115       -0.92260630284711
H           -3.18763033734638        2.25370146276036       -1.00095662301621
H           -2.03950036743795        2.06862128375368        0.31732424909242
H           -0.27252319025577        1.93485064302261       -1.11537026876800
H            2.17281970291525        2.12299122964094        0.98949757022138
H            1.36898146388257        3.17466377801963       -0.16306958483260
H            3.59813911723114        3.99752739185862       -0.97707845834921
H            4.40653312210450        2.94880382170117        0.19106590175809
H            5.64923366115924        4.57934338710298       -0.49774614727332
H            7.36328041288347        4.39758639253126       -1.81434362485911
H            9.55722869169863        3.95572568868387       -3.68532525904875
H           11.68794653044009        4.93021828969990       -4.47062441441904
H           11.25749648981778        8.22822896786093       -1.75533725634397
H            8.87867696533093        8.04635158299536       -0.20628471141540
H            7.19271966762251        8.23492338119539        1.07701534080542
H            5.25735475390996        8.40578846652038        2.56215203809695
H            3.42076692079391        8.49412348405810        3.86181817792474
H            1.79267314184010        7.85347180198939        3.79625749786493
H            3.29379501459721        4.66289159418483        3.21742801733837
H            1.74395208476034        5.42771388388736        3.52665063906493
