112
 energy: -21.571889421004 gnorm: 0.000250942177 xtb: 6.5.0 (97a52f5)
C            2.12937817514813        1.81185454664860       -0.84378197350083
C            1.00556196252568        0.84659280441364       -0.68762688088046
C            0.80306022185237       -0.16155231996312       -1.61842565545338
C           -0.25521404849230       -1.03042709757946       -1.49003951882743
C           -1.15176022902266       -0.91809472410610       -0.43058262910452
N           -2.27789090222206       -1.81852222388428       -0.36030119669425
C           -3.59705231560992       -1.25235924013397       -0.24981059867464
C           -3.91611446848611       -0.14159460751040       -1.02753033897358
C           -5.17380183638670        0.43392937005459       -1.00958913977716
C           -5.53211420510267        1.65111659893943       -1.87622292141670
C           -6.68128968180435        1.27660007767393       -2.83037788518685
C           -5.97002762092688        2.81350955522762       -0.96630258332554
C           -4.33215829032153        2.12197270540874       -2.72184184795879
C           -6.12879187364782       -0.13171754796423       -0.17619477616097
C           -5.82962038976831       -1.22442014223221        0.61377362180260
C           -4.56992490898550       -1.79457596839054        0.60303225564236
C           -4.27619136214661       -2.96780890422323        1.46944928031773
C           -2.04680447096355       -3.21937307055636       -0.54563431168925
C           -0.93216187470050       -3.79647900169042        0.06963421605055
C           -0.65848182319030       -5.13514455943622       -0.03451017215868
C           -1.49422920260679       -5.98255839239924       -0.77391417526041
C           -1.23347973140754       -7.37406675127337       -0.90208173797458
C           -2.05331163991787       -8.17681511477599       -1.62425719626158
C           -3.21130213617605       -7.67243497947251       -2.27717753533288
C           -4.08541010376983       -8.50179612656222       -3.03008282846124
N           -3.92084058754584       -9.92155298060548       -3.10359480252339
C           -4.31478935445378      -10.59453755588188       -4.31836556686145
C           -3.75306365060211      -10.19019390745572       -5.52700838820024
C           -4.09133267863164      -10.80703422990410       -6.70860122135726
C           -5.00910389642867      -11.84722824159577       -6.72326314413298
C           -5.37256746823607      -12.53702482797009       -7.99277248713898
C           -5.58021295410185      -12.24374408759577       -5.52209206732691
C           -5.26291852190199      -11.62999580473757       -4.32184515007963
C           -5.92790674287763      -12.06612457397699       -3.06471015129498
C           -3.56589305946538      -10.68462560299396       -1.93458439996248
C           -4.13717535768969      -10.34873148116830       -0.70924741310601
C           -3.84169803355557      -11.03536549300947        0.45478630303737
C           -4.45739720245903      -10.65681407748993        1.81050883634522
C           -5.25206170380610      -11.85483544036924        2.36205553079273
C           -3.33254394076700      -10.28247826728555        2.79334286762006
C           -5.41295369071246       -9.45360250896027        1.68630988167760
C           -2.94970353117169      -12.09517999054594        0.36878762854517
C           -2.36692664953526      -12.44125889962279       -0.83436142098948
C           -2.64900421577049      -11.74416354182643       -1.99491370416040
C           -1.98381063216362      -12.11569069978577       -3.27241847769016
C           -5.15546376990732       -7.91197758721801       -3.70922243039326
C           -5.40176283689646       -6.56566211376661       -3.64452502672795
C           -4.57845486230840       -5.72208324620172       -2.88731579320243
C           -4.80626221053767       -4.32164100002057       -2.80714797307417
C           -3.99844688858518       -3.52267472465775       -2.06807270718871
C           -2.89677708529572       -4.04145563516878       -1.33401772684997
C           -2.62297382858245       -5.43098317762195       -1.42871411589519
C           -3.47494457759043       -6.28026862835905       -2.19627885444870
C           -0.95255874919729        0.09058145078894        0.52509121891505
C           -1.87290021698214        0.24048933553365        1.68399514711906
C            0.11395337890485        0.96016380716366        0.37047017840375
H            2.99634259212574        1.33566047288868       -1.30436278665431
H            2.44508032469024        2.20997824051840        0.12179330322905
H            1.83317381132134        2.65233041010475       -1.47329103286329
H            1.48141802946857       -0.25350811919324       -2.44974759843005
H           -0.41537273794258       -1.80430443202750       -2.22050133513835
H           -3.14855425573258        0.25523795411722       -1.66477274163663
H           -7.57548905430061        0.98755122439548       -2.27955936030578
H           -6.39539020348512        0.44001725951583       -3.46767945770163
H           -6.94342620468307        2.11646902034995       -3.47357394329267
H           -6.85081813177665        2.54953122690477       -0.38232212253923
H           -6.21318246536400        3.69849723515874       -1.55409414609840
H           -5.17391161959609        3.07869438994614       -0.27089008041332
H           -3.99776166373566        1.33732781223409       -3.40025312036444
H           -3.49461360742257        2.41206456773237       -2.08771238185083
H           -4.60176752007281        2.98721817441555       -3.32730751014048
H           -7.11847044316021        0.28998418004980       -0.14431834185593
H           -6.58610118232789       -1.64521111121771        1.25448280018885
H           -4.84063338749385       -2.92034016004068        2.40188154442953
H           -3.21772865436414       -3.01173647952542        1.72751337457021
H           -4.53834673738023       -3.89839089785373        0.96422692800376
H           -0.28814380664920       -3.16114440417852        0.65245763397386
H            0.20438916439814       -5.55153331603226        0.45658794567415
H           -0.36637806335568       -7.78411287057187       -0.41320352350256
H           -1.82518143204935       -9.22236285897118       -1.71521461660866
H           -3.03777969084124       -9.38607528183444       -5.51818295421672
H           -3.64140725919400      -10.48703229281985       -7.63315895146666
H           -4.94388026815002      -12.03044495985966       -8.85877811717178
H           -6.45528919963685      -12.56300425318549       -8.12566351199984
H           -5.00849778800446      -13.56559193266747       -7.99329618139454
H           -6.29547069923448      -13.04739520957639       -5.52705177644913
H           -6.86579939646348      -12.58430984760811       -3.26996387816414
H           -6.15738706662058      -11.20970575710422       -2.42954051941014
H           -5.28688328940471      -12.74448906765389       -2.50016454223918
H           -4.82534170420006       -9.52480001742658       -0.69132809266300
H           -4.60739742427435      -12.71824441201551        2.52179300980626
H           -6.03848887223509      -12.14801373486473        1.66684695119103
H           -5.71912987883938      -11.60746812138542        3.31516610781215
H           -2.65388070620105      -11.11881183860352        2.95617777054232
H           -3.74096521501201       -9.99177729935352        3.76104900778310
H           -2.74815976763341       -9.44670786284677        2.40908434400564
H           -6.23972573565479       -9.67682953705906        1.01232241672827
H           -4.88945407478290       -8.57343674518146        1.31335328887685
H           -5.83890352823028       -9.19672765611135        2.65608659689451
H           -2.70364048753845      -12.65206871711783        1.25626914597070
H           -1.67254128302525      -13.26339216205506       -0.87550329805946
H           -1.05711447887401      -12.66290580390689       -3.09357368519009
H           -1.73453557857212      -11.22688627016372       -3.85326536751702
H           -2.63379970969279      -12.74608944768891       -3.88062409610477
H           -5.80901712586237       -8.54785416424357       -4.28032743249190
H           -6.23804122072290       -6.14151437007530       -4.17352024857755
H           -5.63596783060838       -3.90116643762660       -3.34921736940882
H           -4.18636122188813       -2.46635629128850       -2.03936978248231
H           -2.22545276338658       -0.73172948278878        2.02948894056098
H           -2.74392285432156        0.83910298668993        1.41397995990404
H           -1.37667504615997        0.72849645458894        2.52419465229400
H            0.25799668919245        1.74489086024407        1.09216014127814
