80
 energy: -16.489225034466 gnorm: 0.000175845941 xtb: 6.5.0 (97a52f5)
C            2.30852057874912       -0.07700951228754        1.39218203770157
C            0.85678159076137       -0.08846459210520        1.05945729742199
C            0.35218520926371       -0.98009913617192        0.12181903656483
C           -0.98314709265191       -0.97161861964585       -0.21254042527878
C           -1.85864365545898       -0.06512051011702        0.37911699416365
N           -3.24197829768487       -0.01208782696995       -0.00602597805449
C           -3.92741148336855       -1.22597238452748       -0.35427099856280
C           -3.64083112451833       -2.42376886006664        0.29491868490891
C           -4.34024300540965       -3.57091743957987       -0.00488145386869
C           -5.35293186756284       -3.55908007379616       -0.95528142915994
C           -6.09724201366096       -4.80506020017692       -1.29016022464140
C           -5.63291235023911       -2.36709950019803       -1.61098251791477
C           -4.93510154321429       -1.21798989430881       -1.31427974569163
C           -3.93493746548302        1.24654412251065       -0.04192601145655
C           -3.40838668755190        2.33478447895622       -0.78454315232504
C           -2.22097886297023        2.20184940212897       -1.53735206675649
C           -1.69087078461321        3.25419998768465       -2.22302003972854
C           -2.32281935934690        4.50029074320348       -2.19368785725245
C           -3.48439974825153        4.66231018778669       -1.49862098327949
C           -4.08027743157689        3.59107860640859       -0.79731805010241
C           -5.30986769310559        3.75443359066005       -0.10822816116152
N           -5.99907751340795        5.01526226955229       -0.13852249590476
C           -6.38923310088091        5.65665409264419        1.08664007887563
C           -5.61850085061941        5.51227519081511        2.23659262453902
C           -6.01942593840304        6.07488168524252        3.42746097393420
C           -7.19861466775928        6.80446977496929        3.50848972291907
C           -7.65079272901322        7.38146287264764        4.80506364908330
C           -7.97221262420236        6.94324578303981        2.36346121401466
C           -7.57489530054747        6.38153111498876        1.17113244111736
C           -6.30617589713890        5.64181065985439       -1.39466726884099
C           -6.58796338583860        4.87062855738756       -2.51851771082132
C           -6.82605769288054        5.46461428135549       -3.73746883088997
C           -6.79581061694864        6.84663691036394       -3.87370311470871
C           -7.01730417474718        7.48792534446032       -5.19966127292343
C           -6.50723482409452        7.61689254368428       -2.75470795138758
C           -6.26842270280929        7.02653220225790       -1.53425328722118
C           -5.85039167619613        2.65778146751015        0.61186218030839
C           -7.09065197201179        2.75885716350707        1.27966359735604
C           -7.59574502107193        1.72092071611644        2.00504741758798
C           -6.88624807087410        0.52069285573966        2.10005056861923
C           -5.69775476499248        0.37491743170966        1.44824718115305
C           -5.15291835389790        1.41657705707836        0.66564564810174
C           -1.35000936292686        0.83374886998309        1.31211233727207
C           -0.01382527915568        0.82266501628976        1.64362629443510
H            2.73784410482899       -1.07701224673386        1.31545278656546
H            2.47717955442574        0.27822752047520        2.40974711983511
H            2.85616557943830        0.57715909624196        0.71224093427622
H            1.02177978600043       -1.67891750924273       -0.35027391106867
H           -1.36174684688780       -1.65351777862825       -0.95377408469288
H           -2.87484185742297       -2.43662803362656        1.05046289830159
H           -4.10848927806932       -4.49172651545517        0.50299059479288
H           -6.13353536638872       -5.48387564097559       -0.43681811681593
H           -5.62000416884696       -5.33095922438611       -2.11821341503232
H           -7.12550126492323       -4.58342119516090       -1.57958495915457
H           -6.40962703496820       -2.34907809514439       -2.35653375836209
H           -5.16406836650176       -0.29525870316435       -1.81816349215000
H           -1.72915904069805        1.24695992121254       -1.56137590029914
H           -0.77920818868747        3.12951231387963       -2.78435792620756
H           -1.89217666107099        5.33148555398008       -2.72797374152960
H           -3.96690988432491        5.62202626141815       -1.48231496553451
H           -4.70685907907294        4.94339361201526        2.18186011313592
H           -5.42032571275381        5.94669149319740        4.31295577559032
H           -6.80222490470695        7.62426303200852        5.44618513455066
H           -8.28688187983293        6.67599117443654        5.34162976989504
H           -8.22150412831004        8.29827697594140        4.65025815002601
H           -8.89687320622789        7.49227531589148        2.41914463952510
H           -8.19023185028689        6.47801146083030        0.29371908195618
H           -6.60767096625448        3.79927362569517       -2.42067647213940
H           -7.03275731401646        4.85690922020685       -4.60198286184205
H           -7.65234778606467        6.87001799465538       -5.83604236606764
H           -6.06980556553768        7.64187892964102       -5.71806827836689
H           -7.50274250265597        8.45886726994044       -5.09080692520341
H           -6.46446848598769        8.68837135467475       -2.85302071211697
H           -6.02716537499181        7.63022027004190       -0.67686436207190
H           -7.63958946647855        3.67993635088370        1.21259827729957
H           -8.54071085019281        1.82563319933699        2.51284278609556
H           -7.28514999166700       -0.29184854341567        2.68523388236173
H           -5.15852577020207       -0.55133266565391        1.52244072454589
H           -2.01841511837510        1.54523952831508        1.76462317119454
H            0.36991849593630        1.52954824603125        2.35952145651900
