94
 energy: -18.897506898411 gnorm: 0.000928010751 xtb: 6.5.0 (97a52f5)
C            0.02942514964280        0.67851673113341        2.85646171486671
C           -1.37196034426905        0.79453778932050        2.36495558518981
C           -1.91744875560117       -0.18870429694639        1.55024595055799
C           -3.21554053298059       -0.09283791582998        1.10154833877375
C           -4.01231914704623        0.99184737456443        1.45703360470575
N           -5.34417302652486        1.13183663756568        0.92865155481713
C           -6.11698101941603       -0.06248931000837        0.71347462381807
C           -6.22709996856066       -1.02323188562044        1.71417236101406
C           -6.96291413616025       -2.16882187575824        1.50969810120298
C           -7.61306827457318       -2.39105448634297        0.30254196777914
C           -8.38965520297035       -3.64175892172364        0.07599906624402
C           -7.48869343730860       -1.44077932809803       -0.70296879375056
C           -6.75360033735244       -0.29413731702389       -0.50245742458518
C           -5.73223309897119        2.38290231459174        0.36015962936141
C           -4.74554662388061        3.20157956313151       -0.16739434876956
C           -5.00211433794068        4.40346839841085       -0.80888625334343
N           -3.89278534229035        5.19566363973782       -1.23442747147362
C           -3.89011142236949        6.62628843876970       -1.08182897538371
C           -4.49038219878658        7.23019734916776        0.01917285575273
C           -4.48266970875116        8.59961483340634        0.15982185862283
C           -3.87851442066167        9.40884810791886       -0.79363677010552
C           -3.85264682318066       10.88908483695253       -0.62839754665625
C           -3.26381255809453        8.80559228010596       -1.88332591666045
C           -3.26843142836678        7.43636723879382       -2.02717998440086
C           -2.63963031917639        4.54304478110574       -1.51241102598476
C           -2.59063644383243        3.40830873753800       -2.31673518672562
C           -1.40219302796266        2.74459211717213       -2.52405924624364
C           -0.22641188138658        3.18843298928680       -1.93295821041501
C            1.06168264774882        2.47947742587857       -2.17136899429120
C           -0.27102567601091        4.33117521079878       -1.14528288043465
C           -1.45725782617497        4.99798599943989       -0.93625070233077
C           -6.35544882765738        4.80412143223704       -0.98506124588473
C           -6.71680139752969        5.95601410672798       -1.73161561537174
C           -8.00948962065297        6.34288668712388       -1.87003412131316
C           -9.06454392859143        5.60068845880175       -1.26810284381210
C          -10.40490823872052        5.98662497254745       -1.37919690920168
C          -11.43007586554040        5.25759456160290       -0.79134958714916
C          -12.90532436602887        5.67447759465945       -0.90984805307753
C          -13.69858008082478        4.54987096845896       -1.60132573045162
C          -13.47939472185323        5.92378853207682        0.49750841211884
C          -13.07180843832631        6.96463875656422       -1.73666004980335
C          -11.10120493003697        4.11496831378174       -0.07598133137628
C           -9.77897667212391        3.68089642710564        0.06442490651846
C           -9.43696427198577        2.51076855353842        0.79900954779750
C           -8.14738370643946        2.10282816734486        0.90157394218416
C           -7.08540104466198        2.81461218034582        0.28441838216849
C           -7.38590521166497        4.01370903566527       -0.41272324861517
C           -8.74304267011834        4.43192987573634       -0.53877151954737
C           -3.47060346297816        1.96672500550303        2.28978221615373
C           -2.17184043899661        1.86782669878245        2.73623180165081
H            0.08253944392531        0.01912260267705        3.72437724014821
H            0.42782842858955        1.65157960356835        3.14815469293536
H            0.68319663365321        0.27146170078523        2.08310694145729
H           -1.30896649325680       -1.03059208052196        1.26571119977922
H           -3.62468046413533       -0.84802724104584        0.45336317274977
H           -5.73013528558677       -0.85323733101423        2.65344481533499
H           -7.04025333482134       -2.90647492094439        2.29044537973796
H           -8.82596159747491       -4.00832564003137        1.00645089480181
H           -7.74929381321994       -4.42743192263786       -0.32767704667789
H           -9.20566395705330       -3.47671242820796       -0.62913644334735
H           -7.97506555378195       -1.61114662760618       -1.64845219488749
H           -6.65940802507966        0.43793555022169       -1.28546438825161
H           -3.72393744255065        2.88800378340555       -0.07258053389994
H           -4.96175165813133        6.60793979804493        0.75980464744930
H           -4.94867355763115        9.05634941478295        1.01638891000115
H           -4.74220251163116       11.24211764412234       -0.10471301755458
H           -3.81666189937069       11.39313864111660       -1.59525452642444
H           -2.97888810203981       11.19951199405838       -0.05366586638425
H           -2.77932468358628        9.42356193945534       -2.62019389186059
H           -2.79611569381732        6.97406760875520       -2.87644684946893
H           -3.50019613082245        3.05416891839767       -2.77005693658469
H           -1.37628684525108        1.86786964805334       -3.14858696032893
H            0.89881602759326        1.41540058336614       -2.34850087063739
H            1.72743412083080        2.57302407110083       -1.31202870382822
H            1.57519264138608        2.89121366587653       -3.04141954735026
H            0.63701622448420        4.69151846601010       -0.69235035568137
H           -1.48782631747668        5.87107049937866       -0.30818575103105
H           -5.93796938323247        6.52964662552905       -2.19966435536548
H           -8.25465830533043        7.22447705001727       -2.43688601322097
H          -10.62751099128217        6.87546007102989       -1.93943793771530
H          -13.65831199505756        3.62516997885769       -1.02711396031989
H          -13.29332603555522        4.34614162264800       -2.59219975135015
H          -14.74660111180690        4.82582611208007       -1.71563161090101
H          -13.43847755423707        5.02274528988704        1.10798798029858
H          -14.52002955710092        6.24290663632349        0.44337548632543
H          -12.91494149542966        6.70189728236494        1.01079912995847
H          -12.69584041691193        6.83250310089225       -2.75088708950731
H          -12.54281093259702        7.79793560337845       -1.27481619639966
H          -14.12287532305342        7.24335253285126       -1.81035339380824
H          -11.88019310638171        3.53738783355892        0.38739601863701
H          -10.22377787553481        1.94904455191689        1.27234059714582
H           -7.91273905448085        1.21970276231227        1.46702803522568
H           -4.08204725963027        2.80605265327237        2.57270153453851
H           -1.76238233810212        2.63105456593941        3.37593108220169
