89
 energy: -18.518154685651 gnorm: 0.000233775435 xtb: 6.5.0 (97a52f5)
C            2.34643928101002        0.02597298896551       -0.88766361198008
C            0.87480854345086       -0.01048795346109       -0.66194936454042
C            0.11390915361732       -1.08637783684377       -1.10027802846361
C           -1.24917683821003       -1.11207608375172       -0.90745897448930
C           -1.89734808666575       -0.05687134972177       -0.27233034515919
N           -3.31614579582778       -0.08090968403540       -0.05329726079515
C           -3.98510395121627       -1.31667468224925        0.24086094365051
C           -3.36474439555798       -2.30893976634751        0.99423658929584
C           -4.00674859872897       -3.49860993907157        1.25562228386525
C           -5.29049992008406       -3.73415605878125        0.78138365655633
C           -5.97035644856836       -5.03446595870584        1.03637956044463
C           -5.90955098035493       -2.74635630131487        0.02711314755289
C           -5.27081645227376       -1.55554332322106       -0.23575964402969
C           -4.06838994095552        1.13764119126992       -0.13291100734398
C           -5.05848741937420        1.42967909575624        0.80528636102112
C           -5.76726994121521        2.60289038072036        0.73870399043264
C           -5.53197362673026        3.53103167245160       -0.28273619378886
C           -6.27444439983397        4.79493529301899       -0.35269910852593
C           -6.71728581918175        5.43607345032094        0.78831699004802
C           -7.41134060219553        6.64960611565376        0.75459463410058
C           -7.72862065646225        7.29801481634491       -0.42347232256280
C           -8.46822681215749        8.56563207101742       -0.42585175552890
C           -8.32869422684127        9.49136553316717        0.61506856882301
C           -9.02854525633977       10.67163296030154        0.61005940279478
C           -9.91487998843494       10.97355134977328       -0.42387868627649
N          -10.64839087044943       12.20630370497257       -0.42561553839683
C           -9.98316312863925       13.43150009915506       -0.08254404249631
C           -8.65262883694564       13.63628682187681       -0.43613455572663
C           -8.01456610514687       14.81570328997511       -0.12492153608991
C           -8.68393805265026       15.83096743652459        0.54525120387738
C           -7.98679351545783       17.09876778300558        0.89826888216759
C          -10.00649328099957       15.62201121362362        0.91331801245488
C          -10.64776095542952       14.44359533098165        0.60368727141769
C          -12.04043193754519       12.20878191073481       -0.77662592206490
C          -12.86067082494020       11.14138838510290       -0.42300820448730
C          -14.20050406732385       11.14797949169354       -0.73908693514403
C          -14.76666558714377       12.22088991868799       -1.41458392447121
C          -16.21273995450135       12.21784379694760       -1.77079961437544
C          -13.94612464170765       13.27855014728629       -1.78400130223471
C          -12.60567897921539       13.27524185224626       -1.46954971195085
C          -10.06263024993706       10.05317210088670       -1.46124874713704
C           -9.34501646325117        8.88433035511387       -1.46744355329270
C           -7.30783556189797        6.67623464804886       -1.65634614222164
N           -7.49881221932471        7.12465831721177       -2.87909684840906
S           -6.80812579861565        6.05922894329050       -3.92617879549878
N           -6.23897751647914        4.98397932182325       -2.81794323690983
C           -6.56176137621130        5.42376894180927       -1.61998777410348
C           -4.55268792401929        3.22038743587268       -1.23115461254186
C           -3.82777113302224        2.05887770779067       -1.15195289968823
C           -1.13524739873950        1.02793591081343        0.15156479067467
C            0.22741354524080        1.04998061489517       -0.04225116451119
H            2.76439102887205       -0.98071735790142       -0.92713013362231
H            2.85374614565741        0.56300036252745       -0.08512677301260
H            2.58169697131152        0.52557679126495       -1.82819309363290
H            0.60350601035847       -1.90670131805091       -1.59682298255199
H           -1.83197262535618       -1.94695475150906       -1.25510394327600
H           -2.37425448552536       -2.13079584267008        1.37463112823811
H           -3.51319976142678       -4.26200789146164        1.83255765483668
H           -5.64686249609147       -5.46921977112811        1.98293605114542
H           -5.74700726720048       -5.74961585311204        0.24366969160186
H           -7.05304445317770       -4.91031271214404        1.08224427152662
H           -6.89960607593416       -2.92344834325714       -0.35716060119140
H           -5.75438209876996       -0.79786555322210       -0.82712133291847
H           -5.24836394218708        0.72219089887508        1.59341067855437
H           -6.53241202103635        2.80623164004368        1.46739301707933
H           -6.49454256241947        4.99516371093677        1.74417284209510
H           -7.73428117245654        7.08597787140695        1.68357577685369
H           -7.64223993776929        9.28101767932593        1.41652145423557
H           -8.91069145084150       11.37873760708425        1.41247241981767
H           -8.13103635309131       12.85930221596366       -0.96702279055777
H           -6.98469881142609       14.96121461018714       -0.40314764511158
H           -7.19927800150178       17.32862335184058        0.17938158488341
H           -7.53032841749399       17.02738467700235        1.88623139458354
H           -8.68110030194108       17.93994464122390        0.90777357116418
H          -10.53002304473837       16.39646768138761        1.44750214622872
H          -11.67116560443482       14.28811279226884        0.89686425153366
H          -12.43208163589155       10.31248757518217        0.11253179374992
H          -14.82428699521352       10.31577713430930       -0.46059395905771
H          -16.79841328421391       11.66784180255589       -1.03303257320261
H          -16.37105401648532       11.75005697576022       -2.74324176733598
H          -16.60910148030432       13.23299606098523       -1.81663213035030
H          -14.37123171825027       14.10792390948296       -2.32310309968360
H          -11.97609456729563       14.09654740127398       -1.76382870922287
H          -10.73578512772737       10.28529854875584       -2.26783399771848
H           -9.45065163128114        8.19161605319588       -2.28276419714212
H           -4.37174262039432        3.91449051737442       -2.03178955197924
H           -3.07391841242470        1.83459521962173       -1.88616062159912
H           -1.62806161125848        1.84791687329182        0.64385970938156
H            0.80562984281398        1.89553132979035        0.28936554164998
