56
 energy: -12.050865765038 gnorm: 0.000976922458 xtb: 6.5.0 (97a52f5)
C            2.44091896392698        0.03461500445936       -0.35256036554696
C            0.95565955845081        0.00385379230095       -0.24936990667684
C            0.22461445798202       -1.02058161891735       -0.83488423299328
C           -1.14967030650237       -1.03698807804092       -0.76291772285318
C           -1.84009374167358       -0.02336971017054       -0.10556225907255
N           -3.27327886747651       -0.04185125301692       -0.02572249098389
C           -3.95974299155258       -1.29481404193748        0.11770608895142
C           -3.43890152371809       -2.30651167838210        0.91864649926793
C           -4.09525096291737       -3.50939183961757        1.04754641512083
C           -5.29428397725028       -3.73953289116015        0.38639316113603
C           -5.99393572983494       -5.04894162380416        0.50345487405808
C           -5.81042663232043       -2.73457487018686       -0.41995000573474
C           -5.15669071683680       -1.53077471764283       -0.55173414690872
C           -4.01676367151303        1.17820523700120       -0.10517239210903
C           -5.20227461900278        1.33829944840328        0.61056250960102
C           -5.92020577617116        2.50574185670333        0.53246380675483
C           -5.48646261235190        3.56533924155556       -0.26853030821615
C           -6.26244155867187        4.81794226852591       -0.35918823842217
C           -6.33463618451605        5.53595515769089       -1.55416802858358
C           -7.06323842768145        6.69529050153473       -1.64054569379908
C           -7.75445941665357        7.20288856898502       -0.53781304230118
C           -8.53926924239510        8.42331752242699       -0.57698424189347
C           -8.77022970688155        9.24142608189026       -1.63029478640235
C           -8.27013118370826        9.04181636263480       -2.91855760454602
N           -7.84778661606640        8.86705643350191       -3.98769886286031
C           -9.56914294076372       10.37014122674486       -1.43081603540634
N          -10.23558975690235       11.30721425240618       -1.25763805814119
C           -7.67669496070496        6.48427087245202        0.65887598729896
C           -6.95113462996214        5.32178893058876        0.74601264440598
C           -4.29766267324010        3.40095386933962       -0.98426797444242
C           -3.57879702897103        2.23432871255865       -0.90265736159084
C           -1.10612052854431        1.00674427852761        0.47435970196830
C            0.26804530895438        1.02067471777269        0.39904242002736
H            2.85318900465276       -0.97400010928973       -0.39471562132504
H            2.88450669785682        0.53706881494235        0.50755563751428
H            2.75458699652673        0.56506356860223       -1.25208980557331
H            0.74618301217664       -1.80759052136445       -1.35199194934402
H           -1.70884943799741       -1.83134782253994       -1.22501012344393
H           -2.51541984147427       -2.13191476639179        1.44213148179335
H           -3.67884459642724       -4.28581124293343        1.66608804401528
H           -5.69886463082311       -5.57508786121545        1.41179182375648
H           -5.75994358633124       -5.68922729210415       -0.34763016029586
H           -7.07540004902604       -4.91279272895389        0.53648647683876
H           -6.73182763993153       -2.90843766852268       -0.94873186170194
H           -5.55797419736734       -0.76034677503283       -1.18645426549113
H           -5.54290874948813        0.53229904478007        1.23633050893934
H           -6.84162156931308        2.60466959840816        1.07911692726307
H           -5.82801371996286        5.15642890663276       -2.42459707561390
H           -7.10354428770076        7.21792065866663       -2.57696619128143
H           -8.99779629694506        8.70743580319386        0.35473469793733
H           -8.19731273428755        6.85566762818844        1.52490700563155
H           -6.89359549955220        4.79623025953399        1.68325609781893
H           -3.93634942833891        4.21019360021268       -1.59442620241726
H           -2.66962389497554        2.11720494236328       -1.46568310668993
H           -1.63015531034673        1.79044416254938        0.99260179371555
H            0.82388845454647        1.82676778515648        0.84622551883832
