53
 energy: -11.448085549206 gnorm: 0.000505483323 xtb: 6.5.0 (97a52f5)
C            2.44198060543977       -0.11728506345265       -0.57095028460384
C            0.96032882878352       -0.10110807837282       -0.42547375372453
C            0.18002910007653       -1.09789506950560       -0.99532722102920
C           -1.19136172784299       -1.07141199184868       -0.88247188290643
C           -1.82856581676713       -0.04029765927610       -0.19943839033192
N           -3.25803958066652       -0.01168652890219       -0.07699671366630
C           -3.98584444339294       -1.23458039113597        0.10736040529240
C           -3.46384810138087       -2.26570623652578        0.88203186833625
C           -4.16552863489287       -3.43628925596101        1.05964963701841
C           -5.41252085325445       -3.61389167917621        0.47591212177160
C           -6.16060642702229       -4.88957157497744        0.64843761611890
C           -5.92957736489106       -2.59019635421247       -0.30606557617507
C           -5.23078483908220       -1.41835494138227       -0.48616406519614
C           -3.95635912879377        1.23858929317612       -0.12467512842007
C           -5.07475811710141        1.46218789989202        0.67612656420685
C           -5.73460699970854        2.66561033876574        0.63756187122339
C           -5.30640541219765        3.68913846901723       -0.20274706471154
C           -6.03436124974771        4.95671548494559       -0.20915159520847
C           -5.78524317792235        6.05708958887551       -1.02416954109851
C           -6.70736770598563        7.02466593106501       -0.69140819437485
C           -7.51003904055691        6.50805420798692        0.32218778213174
C           -8.61028585863070        7.16178950009546        0.98931677972758
C           -9.08941719564570        8.40030418311213        0.73713142335287
C           -8.56669873699407        9.24816264461973       -0.24228425916914
N           -8.12266615929587        9.94288179102174       -1.06145758929333
C          -10.16744483516568        8.87147746881443        1.49126627179313
N          -11.06476527728873        9.25522473034125        2.12277551250240
O           -7.09400649398840        5.23122005408536        0.61874011508723
C           -4.18931192312201        3.46586623388131       -1.00692980728334
C           -3.52771334309041        2.26310353238871       -0.96691747439072
C           -1.04572422677487        0.96298724139520        0.36322604792057
C            0.32527844366447        0.93344298939204        0.24783253951246
H            2.81931092614359       -1.13798390715858       -0.63933944805940
H            2.92580251355408        0.35723631334247        0.28327372326455
H            2.74724977917153        0.41659511026953       -1.47130373842825
H            0.66078613613981       -1.89676854003640       -1.53327881482591
H           -1.78963362938842       -1.84367539373862       -1.33312520198869
H           -2.50424473526578       -2.13042728510127        1.34917764175310
H           -3.74860733437490       -4.22842904211625        1.65749668165981
H           -5.90391213124188       -5.37212594858367        1.59189676304102
H           -5.93041768883569       -5.58447886749273       -0.15961506163069
H           -7.23712113589246       -4.71615958099657        0.64842810075947
H           -6.88879167248940       -2.72308565215908       -0.77616567549538
H           -5.63508253173401       -0.63252093458657       -1.09972120159736
H           -5.40600674272787        0.68068890459965        1.33690975108947
H           -6.59521773386991        2.83790671257824        1.26104247615782
H           -5.01781231178093        6.14046252701676       -1.77426221643083
H           -6.79464161670327        7.99975909039220       -1.13507719909855
H           -9.08838949109813        6.59069089164535        1.76516599949385
H           -3.84402509937415        4.24563200003240       -1.66233535393334
H           -2.67207897804890        2.09247038578896       -1.59622531290959
H           -1.52941162001212        1.76004475809451        0.90003638880040
H            0.91940079102053        1.71858170011545        0.68294368395509
