53
 energy: -11.575075630499 gnorm: 0.000691205188 xtb: 6.5.0 (97a52f5)
C            2.43568791833981       -0.06512839270619       -0.45363165865432
C            0.95029826286618       -0.06023327720764       -0.34971148363074
C            0.19699819804022       -1.08082312234107       -0.91362479022070
C           -1.17706383163517       -1.06881990925949       -0.83646283610851
C           -1.84371150664364       -0.02869949190490       -0.19669539352471
N           -3.27563837360109       -0.01942158687033       -0.10500193793867
C           -3.98765318341764       -1.24845687892070        0.09927961782476
C           -3.47494093983620       -2.24047302660569        0.92908444200023
C           -4.16132762928363       -3.41727942899294        1.12446068481634
C           -5.38262618678627       -3.64022716148165        0.50288661378580
C           -6.11329257317641       -4.92360993541920        0.69337685469765
C           -5.88984086940781       -2.65535492161044       -0.33359284964052
C           -5.20691381364899       -1.47693860524153       -0.53073035329132
C           -3.99449439925800        1.21583755258197       -0.20619732884234
C           -5.12499166814794        1.44727254536116        0.57590148080561
C           -5.80834861118329        2.63459596878762        0.48204831003865
C           -5.39114051343384        3.62920244156204       -0.39727047356446
C           -6.13827881358036        4.85871714074807       -0.45304306226885
C           -6.00045337665254        6.00566250949821       -1.21166871399239
C           -6.96584074982482        7.00807992092545       -0.95087132381785
C           -7.89824579907362        6.69276242906169        0.02244597482920
C           -8.99872360689937        7.41382617735867        0.56742377965495
C           -9.38882203909109        8.65758909031864        0.20506935167519
C           -8.73863619926172        9.39754893804313       -0.78579841911401
N           -8.18416047389418        9.99569469453352       -1.61405780700984
C          -10.48924491487475        9.24138240171605        0.83806974737011
N          -11.40458516660816        9.72483742815476        1.36663401032539
S           -7.46229509232528        5.16041799158034        0.50225570001460
C           -4.26145500253911        3.39941500940367       -1.18375852107910
C           -3.57644564264197        2.21306405009535       -1.08646845466876
C           -1.08822926982843        0.99994128542858        0.35723217961167
C            0.28569243945425        0.98423931900797        0.27844989486813
H            2.82595478889595       -1.08329081294491       -0.45381310797314
H            2.89034055912300        0.46239161442694        0.38538028350705
H            2.76002772193111        0.42126368213262       -1.37400482738634
H            0.70109708014684       -1.88738875298572       -1.41772863366359
H           -1.75427713022197       -1.86064050864973       -1.28066146765888
H           -2.53554980791826       -2.06920592975920        1.42474469319174
H           -3.75209947190385       -4.17878174597807        1.76586418531304
H           -5.86050028032487       -5.38306581465144        1.64935438032773
H           -5.86337634531025       -5.63125628167011       -0.09763763747665
H           -7.19218784635621       -4.76632466565534        0.67766967706066
H           -6.82819175601911       -2.82413268184755       -0.83347399096717
H           -5.60271681315617       -0.72109874941848       -1.18617849262718
H           -5.44587879347294        0.68652198039444        1.26534579200104
H           -6.67896265594360        2.82321144380668        1.08737388334692
H           -5.21590664438262        6.12566059128196       -1.94790105994168
H           -6.97581093686695        7.95603034536331       -1.47118404685736
H           -9.55766038887984        6.91107614908882        1.33799990287592
H           -3.92908198597738        4.16106078472087       -1.86699947732617
H           -2.71116355038352        2.03305328877868       -1.69978861101717
H           -1.59546948505172        1.80482807730860        0.85958265847532
H            0.85881716991127        1.78804683066078        0.70764266184214
