58
 energy: -5.875903241510 gnorm: 0.167951985913 xtb: 6.5.0 (97a52f5)
C            0.41428707784531       -1.35236754740377        0.33759425147476
C            1.61117549334941       -0.62265016632017       -0.03223242660856
C            2.40392738346872       -1.40045105812532       -0.96079172882721
C            1.23255127274758        0.63434294574726       -0.65355273099982
N            2.40409900962377       -0.32427628094489        1.16186632925923
C            2.82863316620859       -1.30386563574240        1.98914534677051
O            2.60266301597289       -2.49111281092576        1.80880716987564
C            3.58607534572115       -0.87994052309607        3.14316190143042
C            3.36894607566725       -1.25271836535582        4.38514318081150
C            4.07981522245403       -0.84484473067302        5.42743481207252
C            3.85780302414691       -1.12261342679859        6.73453911780233
C            4.51308063752583       -0.69946608425597        7.77050005218881
C            5.56266938649420        0.16173602210662        7.88556073350456
C            6.06486450448298        1.06929320432471        7.05285691847337
C            5.56087342971628        1.51455947729225        5.91763411485222
C            6.11618585532970        2.33752115099688        5.04732922388509
C            7.31887221540049        2.89423568849983        5.11511547356960
C            7.91141423378463        3.65773484147629        4.16200820397472
C            7.40991254710980        3.96805377402366        3.00805151719768
C            8.00240403753636        4.68205110782362        2.02225747509566
C            9.21521959534246        5.22388802445594        2.03048201291487
C            9.90360405290151        5.88935778632936        0.97834318111636
C           10.96987822068254        6.45805442035577        1.29880660711593
C            9.44144637084376        5.89717922279694       -0.27535228733019
C            8.24668777250373        5.26800809663065       -0.62715028353323
C            7.19309751909063        6.13127019761622       -0.91158569661514
C            8.42048712881430        4.13882168883636       -1.53895377665149
C            7.79212688081577       -0.05947709781718       -7.26874771211741
C            4.94931749183922        0.49354915245917       -3.02847336855565
C            5.87377126953813        1.31624182826358       -2.75245078098513
C            7.84368490047348        1.59199474837135        0.92172826990722
C            5.86664549122935        3.27521863134678        0.09089970235244
C            6.81833946412386        0.55837290684149        2.56999964808550
H           -3.37067053540943       -0.47768710731859       -2.14162631480689
H           -1.52124683145622        2.07038505282749        3.05828268512577
H            0.85581501374595       -3.15118607978625        3.02072918219578
H           -0.15002309887166       -3.22931750798227       -4.25179272578514
H            1.96783981517316       -4.06879775074015        0.39031215688594
H            4.73193655802196       -3.02122634058336        0.77259378055069
H            0.40372429466823        1.45794529059592       -4.43658698872396
H            3.21963767852741        2.64767027869806       -1.94371980923192
H            0.61525467744950        4.36983460156861       -0.18328945788085
H            3.29095071250552        1.76956049371928        1.86794002147212
H            3.45075487906711       -4.29533985411331        2.74038948728830
H            2.45421913167598       -4.30726389073016        6.68016806533738
H            1.91656747018957       -2.44095910479869       10.35627059846886
H            4.73157847957979        1.03950463461085       11.13104453329932
H            3.77798080833192        4.35679128138109        8.29927029168939
H            8.25336773727185        3.03088807833409        8.10202805010340
H            8.44352230600119        7.05587931165834        5.17377214454242
H           12.42796031059164        5.80067125625917        1.91829180664283
H           10.91069143093952        8.14710673178891        1.77766073010650
H           10.97378877165761        6.74890164246427       -0.58098961828699
H            8.70358626598300        4.46140131510143       -2.52052964994990
H            9.14875215206369        3.44502463127456       -1.17073408480246
H            7.37957723758019        0.74361177081596       -7.75935735378525
H            3.75098050606203       -1.95142050190142       -5.37821421896974
H            4.48111513796496        0.22681057729966        0.14203223600101
