47
 energy: -9.687581975252 gnorm: 0.000602232631 xtb: 6.5.0 (97a52f5)
C            2.44487536073871        0.07973071287792        0.06100924152370
C            0.95652681758155        0.04497917359987        0.03698885805151
C            0.28122037978421       -0.99177079811321       -0.59270679143317
C           -1.09419182253695       -1.01373800898564       -0.63682120741196
C           -1.84111379653386        0.00580110933899       -0.05404006091942
N           -3.27305830152823       -0.01059749648983       -0.10174034229758
C           -3.99544784788383       -1.24743670251094       -0.04956520917031
C           -3.54127776831508       -2.31023830095953        0.72579166958403
C           -4.24454027778719       -3.49204147345215        0.78064590165978
C           -5.42643135226440       -3.65041717001867        0.06915354410861
C           -6.18006374602635       -4.93402075803422        0.10977846138776
C           -5.87745262239190       -2.59330635933451       -0.70918620720223
C           -5.17736525716972       -1.40977930410275       -0.76611285710683
C           -3.99671650957331        1.22831013464668       -0.20357009553411
C           -5.12440313802145        1.45874388165381        0.57825320487786
C           -5.81339581370467        2.64216718024837        0.48298118907318
C           -5.40739160071482        3.64373022712313       -0.40085363162030
O           -6.13641872547150        4.84114024027177       -0.41278601038878
C           -5.93797357649396        5.78248206648727       -1.43317914179761
N           -6.32149535215765        7.02807593854496       -1.17240355647128
N           -6.12923378877888        7.92051690861984       -2.07470300952487
C           -5.57636668184107        7.53853238637053       -3.21056972402767
Cl          -5.31075819957928        8.75482536325483       -4.43507075282393
N           -5.21250625466864        6.29984761617997       -3.48586859524207
N           -5.40773608224144        5.40417746327153       -2.58775934923920
C           -4.28020651900087        3.40113969702222       -1.18494061835649
C           -3.58682427449852        2.22116975984115       -1.08772935468294
C           -1.16230630299265        1.05113976537946        0.56499475642890
C            0.21322862555944        1.06979777169444        0.60685835551335
H            2.86137206556090       -0.92788836339040        0.07258573557966
H            2.81180944591313        0.59883831474219        0.94687662452697
H            2.83319971034540        0.59543561017459       -0.81765792675931
H            0.84746479938978       -1.78327344256935       -1.05283096998158
H           -1.60879534826616       -1.81465689305082       -1.13771969068572
H           -2.63634667778100       -2.18946400493705        1.29477413317100
H           -3.88017028491335       -4.30733947556907        1.38170587855392
H           -5.89221470831666       -5.53501279689678        0.97275182546563
H           -5.98983961141778       -5.52221291840607       -0.78836855669989
H           -7.25355590276408       -4.75420671897551        0.17518663618960
H           -6.78687864619327       -2.70941894799262       -1.27342020777671
H           -5.53084888679443       -0.59709911953921       -1.37591012728762
H           -5.44198633761058        0.69624497182127        1.26764326719444
H           -6.67912300459670        2.82324816856235        1.09508307988202
H           -3.95998501397349        4.15378469505750       -1.87894140834497
H           -2.72274229634934        2.04280683400906       -1.70351584264159
H           -1.73088426617438        1.84348479629355        1.01891940276993
H            0.72635939245643        1.88612826623945        1.08550947988775
