76
 energy: -16.205795156303 gnorm: 0.000546283062 xtb: 6.5.0 (97a52f5)
C            1.35209812398696        3.73961862806515        2.92690505055897
C            0.25767077653811        2.88828297791687        2.38284014461383
C            0.54053211338754        1.68769162832037        1.74441628882493
C           -0.46906777105037        0.91343155059808        1.21855215775491
C           -1.79708522203561        1.31952363790351        1.31056154852293
N           -2.85175682269439        0.52404240932188        0.74399925557438
C           -2.81088171117431       -0.90566177958210        0.88614996238522
C           -3.35565386205069       -1.72757893217855       -0.09749268412212
C           -3.33422327902312       -3.09754011758845        0.03894896059787
C           -2.76729233837018       -3.67302605786291        1.15957838845452
C           -2.22239134396770       -2.87164568233494        2.14421054460517
C           -2.24414485581083       -1.50123857981631        2.01032450447946
C           -4.00516502931569        1.13711224088851        0.15463932704939
C           -5.27675617647829        0.66685166131332        0.49581691153960
C           -6.41698636523603        1.21918475387802       -0.02679438415741
C           -6.34723634483666        2.28002272549248       -0.93968417614560
C           -7.51253130805946        2.87696265146454       -1.49414940955838
C           -7.42049252038152        3.88744166436931       -2.39355573735363
C           -6.16322396803888        4.38672560336628       -2.82905498866409
C           -6.05462772718632        5.43449076826727       -3.78018769080590
N           -7.20930803228832        5.97927513757873       -4.43102785308065
C           -7.30740859699787        7.39808448273632       -4.63598581020048
C           -6.85087268342609        8.28336834658078       -3.66265378009961
C           -6.93509995351814        9.64432497470182       -3.85460949075613
C           -7.47605794969222       10.14682454156150       -5.02217113785309
C           -7.93075249630491        9.28165647335697       -5.99867994537131
C           -7.84743321886040        7.92032633237966       -5.80860924917189
C           -8.19154920456953        5.10905913008968       -5.01849139585568
C           -9.54281872013154        5.44201449395165       -5.00667255679887
C          -10.48049915676453        4.58946485181180       -5.54524948023662
C          -10.10126549310048        3.37716493613558       -6.10756487251155
C          -11.11123691705632        2.46308493523163       -6.71012842678432
C           -8.75216328870216        3.04938665293575       -6.12917522402419
C           -7.81184609615907        3.89886042101892       -5.59162840850686
C           -4.78572837372802        5.92023829835767       -4.10889562289305
C           -3.64530990742309        5.38329536195740       -3.56972440442923
C           -3.71279500018263        4.32389314143930       -2.65416126642190
C           -2.54748980730300        3.72363941179447       -2.10323818338463
C           -2.63867140395731        2.70366089799095       -1.21415736413150
C           -3.89502096520635        2.20272862842961       -0.77705049349029
C           -5.07433866728167        2.76974161849402       -1.32333033956274
C           -4.98444927450811        3.83096607139636       -2.27129646023987
C           -2.07865320838346        2.52718832516733        1.94229860245896
C           -1.06625595567536        3.29904625402765        2.46637379277498
H            2.23044536528962        3.14247995501275        3.17605141641599
H            1.03442327568239        4.25502397431964        3.83446600928404
H            1.65385680862508        4.49404012480334        2.19911783466071
H            1.56494426586530        1.36677843712207        1.66087257876791
H           -0.24183657624484       -0.01100392091719        0.71681185153989
H           -3.79148279711863       -1.27323628965823       -0.97016776921920
H           -3.76059932229516       -3.72152959658343       -0.72960453224323
H           -2.75110426532213       -4.74554190270989        1.26561961616027
H           -1.78168363184286       -3.32001703134336        3.01977597721963
H           -1.83238249451573       -0.87295867543029        2.78049480228323
H           -5.34744048960759       -0.14280612962876        1.20102047018892
H           -7.38282099917188        0.84064550905214        0.26061518416496
H           -8.47691496574536        2.51050963390793       -1.18709434202475
H           -8.31436856805234        4.32850589234438       -2.79475215799698
H           -6.43682009336133        7.88497816188834       -2.75290957864371
H           -6.58051618474593       10.31842089492228       -3.09172246592661
H           -7.54254227913537       11.21226704305040       -5.17157416496218
H           -8.34950640596132        9.67309333030365       -6.91135105762062
H           -8.19031045831638        7.24299863319865       -6.57111199436151
H           -9.84505934984269        6.37292024925528       -4.55929513436070
H          -11.52300116235079        4.85866748076019       -5.53276264964600
H          -12.10471868550782        2.64379095874151       -6.29731009726606
H          -10.85843151124382        1.41921939134957       -6.51892113643863
H          -11.16520747064626        2.60394859582969       -7.79056100549489
H           -8.44630658776336        2.11691878064616       -6.57248699164660
H           -6.76841080249681        3.63633449322710       -5.60587476118240
H           -4.71687803587121        6.71952697212733       -4.82593468527540
H           -2.68030423839321        5.76659145757695       -3.85351837804179
H           -1.58316623434256        4.09093318530842       -2.40951560365773
H           -1.74375417717142        2.25587554143877       -0.82348350784309
H           -3.10262730978246        2.85045407334374        2.01068538008391
H           -1.29489461562781        4.23559530562625        2.94590628977810
