62
 energy: -12.364386917622 gnorm: 0.000152459793 xtb: 6.5.0 (97a52f5)
C           -0.19454434148203       -3.27163536873665       -0.85669032202848
C           -0.93016843575648       -1.98661862478127       -0.69740839299028
C           -2.31187135790315       -1.97024926356896       -0.55725516098712
C           -2.99464122207816       -0.78214090426532       -0.43120025242066
C           -2.31770259420848        0.43574532029521       -0.45005723505863
N           -3.02637106935716        1.66062801343484       -0.28575256404965
C           -2.59600565339678        2.97593463901815       -0.63195653904944
C           -1.51764482271073        3.27213157736023       -1.57741184331145
C           -0.56654092197714        4.22610335062768       -1.22598930168228
C            0.52599263213379        4.47314992497453       -2.02527366982503
C            0.69358017334841        3.76483387146877       -3.20069489424270
C           -0.24094538532109        2.83087196600601       -3.58226831449637
C           -1.37432704113121        2.57631443346357       -2.80510520325840
N           -2.35413920744883        1.66319522590539       -3.27065002431308
C           -2.00260554921301        0.55027264864483       -4.14948593702633
C           -3.78860444262535        1.91134129756184       -3.12047147984875
N           -3.24992728454576        3.89821661566030        0.01006767510607
C           -4.24981169003697        3.31849890489075        0.82998919431497
C           -5.63706965607272        3.86646585126312        0.57920516439813
C           -5.96164202993104        4.44862285684694       -0.63349215764783
C           -7.23651683328173        4.92094540133652       -0.86952965826403
C           -8.20441546123990        4.80818264338242        0.10743717679744
C           -7.89533933115721        4.21969721570615        1.31672516496178
C           -6.61939649699479        3.74875847729518        1.54935849821261
C           -4.18636636169233        1.77951919409180        0.61777137018754
C           -4.04194732704170        1.01209172331722        1.90399206034523
C           -2.84418838865470        1.02859746921380        2.59766068304617
C           -2.70381835783250        0.32612485890181        3.77667700538998
C           -3.76695290813381       -0.39591756047370        4.27887517310865
C           -4.96893470244626       -0.41186595365769        3.60137559961422
C           -5.10606853750415        0.28984742675655        2.42131230571030
C           -0.93220800321320        0.41473894573170       -0.59593762078645
C           -0.25289294450936       -0.77465868644392       -0.72211911473771
H           -0.72001538159441       -4.09047342942163       -0.36333798031838
H            0.80369422122204       -3.20977131561706       -0.42104364373430
H           -0.08641637112093       -3.52773314400987       -1.91147891458157
H           -2.84855639836752       -2.90363143432764       -0.54757146900671
H           -4.06455609107122       -0.78141812531048       -0.31949539309449
H           -0.68805955039393        4.75653173646882       -0.29744109978897
H            1.25510193672829        5.21040078533041       -1.73105068529599
H            1.55308741170462        3.95267269248795       -3.82347303947156
H           -0.11942659789116        2.30438621012911       -4.51242794713455
H           -1.98979585586247        0.87736912835634       -5.18761900893721
H           -2.72720735828807       -0.25542333652483       -4.04450583926908
H           -1.02099411541292        0.15985604764439       -3.88646997951752
H           -3.96202328029516        2.93014895655586       -2.78102734103338
H           -4.21293349383440        1.22177890977887       -2.39376161080444
H           -4.29886192331182        1.77551930450814       -4.07239942009930
H           -3.97561257176093        3.53581816265385        1.87468894384844
H           -5.20036889560648        4.53298459904742       -1.38873062638608
H           -7.47542417519340        5.37773988199392       -1.81616574620296
H           -9.20056959377143        5.17790061659616       -0.07401244189741
H           -8.65096352571337        4.12621359430281        2.07976426751798
H           -6.37659848451488        3.27894712929368        2.48725477775657
H           -5.07900288230453        1.44446923309419        0.07445419083597
H           -2.01862191081168        1.59054804419311        2.19621806091786
H           -1.76375062866729        0.34049311902556        4.30374592810812
H           -3.65912947324813       -0.94597407541700        5.19960408569417
H           -5.80151213178079       -0.97318850714966        3.99338249616708
H           -6.04309564696161        0.28032202310430        1.89100586739293
H           -0.39489080538620        1.34559926246317       -0.60112833363160
H            0.81720912690590       -0.77438956044025       -0.84165548322528
