56
 energy: -11.505265781630 gnorm: 0.000198760741 xtb: 6.5.0 (97a52f5)
C            1.45577838384598       -2.14802513833992       -1.08038614950048
C            0.38990415334376       -1.12529101829723       -0.89082914266723
C           -0.67122157132906       -1.35801538195208       -0.02528033293938
C           -1.64085696779709       -0.40249922708328        0.17456034822170
C           -1.58061622537692        0.82469997822267       -0.48261032838520
N           -2.57668560148685        1.81498554558535       -0.25202144985631
C           -2.78350838662685        3.03295946700728       -0.97065545892627
C           -2.47634837120967        3.23253514577001       -2.39004094907055
C           -1.87318652221189        4.41752110136838       -2.80002042508821
C           -1.57043587313776        4.64092799336720       -4.12438790657666
C           -1.87474634809887        3.68342193677523       -5.07608624164084
C           -2.48650883111343        2.50987044931336       -4.70328553175966
C           -2.80540464128380        2.25781829347771       -3.36650409834027
N           -3.44525727804084        1.08243948649482       -3.00581009064453
N           -3.29874370006453        3.96512048985411       -0.22436157358540
C           -3.53339230540608        3.48234512613286        1.08722459343154
C           -4.91898373398758        3.80294447210411        1.60704145942151
C           -5.95739947268162        4.07632216735932        0.73392091656871
C           -7.23113344414730        4.31698091315022        1.20638841766414
C           -7.47970991545341        4.28342223665459        2.56302229855058
C           -6.45325279511823        4.00923750144682        3.44326370106595
C           -5.18070116643284        3.76882191009181        2.96730496215300
C           -3.21309093905193        1.94995751606988        1.06985812870037
C           -4.41578824501048        1.05313395593796        1.20302654484924
C           -4.65121438374335        0.34050359498735        2.36849363216316
C           -5.76628317910336       -0.46423945735988        2.48393189522607
C           -6.65969601022349       -0.56323978479362        1.43697863133615
C           -6.43630349032965        0.14366349970671        0.27377816468876
C           -5.32054473891658        0.94603747637361        0.16153771155728
C           -0.51096510779696        1.05737647596130       -1.34431857391984
C            0.45763898250830        0.10017895344624       -1.54115765493880
H            1.05754355352265       -3.15730468282547       -0.96814982712967
H            2.25232795232309       -2.01714066520706       -0.34673967228815
H            1.89872063630074       -2.07584863489980       -2.07458347161532
H           -0.72734396217079       -2.29985092695153        0.49341183715875
H           -2.46409394682542       -0.59732216082678        0.83824052601800
H           -1.63840473782817        5.16058828652769       -2.05774375311474
H           -1.09653261979805        5.56244617338501       -4.42068726205590
H           -1.63652497789066        3.86080685245373       -6.11218513705684
H           -2.73456015947906        1.76884477363817       -5.44274794193885
H           -3.40061344390778        0.26902622580540       -3.59808503818684
H           -3.39708791340604        0.82555498962781       -2.03119016318831
H           -2.80636135129651        3.99213766583308        1.74155523402095
H           -5.75514825406351        4.09220938869845       -0.32268574514363
H           -8.03146378874232        4.52721415403333        0.51570972604210
H           -8.47428767864734        4.46926078645502        2.93461452577626
H           -6.64588107848168        3.97821244723727        4.50338372578106
H           -4.38012851704282        3.54082688435839        3.65022444178371
H           -2.47486563156270        1.69677520404518        1.84281769116279
H           -3.95711820882508        0.42483412443432        3.18716519646231
H           -5.94114081389124       -1.01365110953419        3.39466260778966
H           -7.53192798309703       -1.18987567620414        1.52845447387274
H           -7.13403987744311        0.07309713395045       -0.54477537655883
H           -5.14547893596859        1.51208793629319       -0.73592578218349
H           -0.44479952578811        2.00357765171252       -1.84972602302107
H            1.28312898948002        0.29707749911458       -2.20377029014699
