72
 energy: -13.676254393824 gnorm: 0.000678904656 xtb: 6.5.0 (97a52f5)
C            2.04139835822607       -2.02281370052429        0.08947676169283
C            0.93081052941962       -1.03246495074126        0.12954382285914
C           -0.05813519674058       -1.09753294547548        1.10173992695115
C           -1.06381639951306       -0.15979482143896        1.14890616810963
C           -1.11791657597206        0.88358154648451        0.22657578181768
N           -2.12024243782210        1.88798262990048        0.31889108722117
C           -2.37528735316814        2.96705294647407       -0.57641296089533
C           -2.01666681020325        2.94142726798659       -2.00070200199353
C           -1.08802295603064        3.82929746035495       -2.53333030066666
C           -0.71350011134418        3.74195619012522       -3.85433179317523
C           -1.26622170326244        2.76916640842762       -4.66879393972194
C           -2.19989068110123        1.89426209057708       -4.16830036644885
C           -2.61146037640546        1.95603677955797       -2.83194743412019
N           -3.54473405541144        1.14497920597667       -2.29718431125872
S           -4.24587143953065       -0.15259302949789       -3.07528051607609
O           -5.57183239032268       -0.49319349719443       -2.45048887114411
O           -4.22806196448928       -0.13697918173636       -4.57802745729379
C           -3.03511754499410       -1.36292441868348       -2.51374784422227
C           -1.81181374363669       -1.41490438211565       -3.07465963251751
C           -0.92468317306445       -2.30367917529512       -2.66256032384549
C           -1.21651196682093       -3.17776222017373       -1.66269997406579
C           -0.25132743113595       -4.18445236211257       -1.23264443572051
C           -2.45426578773675       -3.11026220113450       -1.10571251101642
C           -3.34011851060378       -2.22331129722824       -1.52342793262327
N           -3.10426132473766        3.89855081749629       -0.03836693886004
C           -3.54012976583203        3.50807137076774        1.25103205261879
C           -5.05082716343228        3.52301591077333        1.33962546374780
C           -5.80328996427071        3.08086865339471        0.26578080891078
C           -7.17942608795113        3.05223324690446        0.33427445449103
C           -7.81817035437500        3.46383932845758        1.48518597979684
C           -7.07828201549066        3.89956827525177        2.56489030175066
C           -5.70099109845720        3.92741872047195        2.49381959297811
C           -2.91935537795892        2.09655956864683        1.53805172521769
C           -3.92706316494833        0.99512598475232        1.73803004133284
C           -4.38131441945863        0.65801301218494        3.00253378225687
C           -5.32481250965535       -0.33570322726763        3.16475640088567
C           -5.82834070264965       -0.99854255300583        2.06447986130038
C           -5.38615840339017       -0.66543478549528        0.80240780869618
C           -4.44070912494526        0.32281604472355        0.64460458892716
C           -0.12748755195934        0.93609069069190       -0.75149597654597
C            0.87771570104065       -0.00109586125137       -0.79651063139438
H            1.83862033952856       -2.87432071190381        0.73970200244339
H            2.97733163140627       -1.56797214810181        0.41557983191521
H            2.18556078975359       -2.40357343103066       -0.92222951705910
H           -0.03053733647903       -1.89359792321545        1.82579949623792
H           -1.82486615243364       -0.23095421843785        1.90392947707533
H           -0.65268438426891        4.57489113823270       -1.89091016428685
H            0.01319204905221        4.42956856564090       -4.25451153890576
H           -0.96888370628952        2.70339268283664       -5.70252573773175
H           -2.64510167234454        1.15585116203348       -4.80782317393387
H            2.03885646910921       -0.60298658919039       -5.75965145588490
H            6.12156677750712       -1.98140054563051       -3.70277910648190
H            5.46882015126460       -5.04319965705030       -0.75374391621945
H           -0.36813800966541       -5.10988143361793       -1.76008878144858
H           -0.29121643972809       -4.36249017319512       -0.17663340618985
H           -5.58742979259290       -7.15315556967143       -0.45510121919065
H           -7.75310252060771       -0.73246111439601       -2.82118689375788
H           -5.67075110734863        6.73101784456798        1.20822154829490
H           -3.13933914112849        4.24269270532794        1.96842598526434
H           -5.28927160030508        2.72614925765034       -0.61142346897987
H           -7.75359957746422        2.70136627613008       -0.50712723571827
H           -8.89390929466286        3.44053120418613        1.54263275760452
H           -7.57652974643137        4.21649069263144        3.46623558393485
H           -5.12079804756620        4.25826093853514        3.33778442960141
H           -2.23636456163588        2.13552303803930        2.39735880533244
H           -3.99531597641180        1.18486713469629        3.85817100725374
H           -5.67289883294331       -0.59022897199964        4.15224770845400
H           -6.56867930045368       -1.77135917962882        2.19093471656399
H           -5.78289616515978       -1.16511013235777       -0.06568688119798
H           -4.09943441336928        0.59503689991370       -0.34075862918245
H           -0.14550059852123        1.73006610402960       -1.47295256062517
H            1.63908322325228        0.05983661373669       -1.55522991887750
