65
 energy: -13.542106812391 gnorm: 0.000565639222 xtb: 6.5.0 (97a52f5)
C            1.20307818973355        0.28879559006082       -0.56400296375932
C            2.71354323859130        0.08592832509562       -0.73622982159201
C            3.06095957270916        0.01443490133248       -2.22614489496928
C            3.46498234751946        1.24564449423792       -0.07607387155599
N            3.10955051791899       -1.18922391654174       -0.09150992262432
C            4.41702732122636       -1.64508493705717       -0.08601343519656
O            5.35202500491590       -0.96469157143132       -0.48409424073027
C            4.65388902804370       -3.03484709337315        0.39347845693724
C            3.91211710646167       -4.04735933116569       -0.17747232389405
C            4.24923734403635       -5.37874116951237       -0.00131881383209
C            5.39378430041963       -5.74198065628746        0.67850801766235
C            5.76675746735824       -7.15963064561403        0.77238452395058
C            4.87466780226294       -8.21590860686066        0.69732727971658
C            5.62155374681658       -9.39656627601831        0.82391027595017
C            5.26207664280446      -10.75785409602101        0.81968688419666
C            6.24586986271622      -11.69457547521173        0.96242522705907
C            7.59101063739786      -11.31382093036124        1.11001028254098
C            7.95966234444074       -9.99747415396513        1.11667415617925
C            6.97252784031335       -9.00904565295581        0.97246720325959
O            7.05525067933455       -7.63441960441830        0.94232602188470
C            6.19663076437582       -4.71742589205305        1.26465313766351
C            7.45669715177305       -5.00257310281489        1.83669826647773
C            8.24475949923178       -4.02439856590719        2.34665930086195
C            7.78677571485088       -2.68910880965146        2.45106808327179
C            8.63777481463089       -1.63211633312703        2.98455642908834
C           10.01775462309924       -1.81775238765557        3.15746597216291
C           10.82179716461207       -0.80574513957519        3.61090909747847
C           10.27767622752619        0.43436276952197        3.90133806816666
C            8.93388710011888        0.64800177466575        3.73987336652578
C            8.08252632647874       -0.36959242316121        3.28481173992942
C            6.64196387585907       -0.17465985395321        3.16852819959058
C            6.00572997925937        0.95767655968210        3.69978295212988
C            4.64005516214904        1.07006584475487        3.71316486042852
C            3.85717263770128        0.04367556587037        3.21214830390132
C            4.45114843151024       -1.06240406165760        2.66801746734582
C            5.84627210528725       -1.18546436869925        2.58580946380773
C            6.47185482493149       -2.39345925073225        2.05017324089978
C            5.75178613439415       -3.36738559468728        1.25004074345945
H            0.87964846866093        1.22295705133144       -1.02150497675912
H            0.93740117077804        0.31748669528617        0.49174530609468
H            0.64812211107291       -0.52482165965462       -1.02883651947686
H            2.78409271214748        0.93380926791211       -2.74059714197991
H            2.54013214269712       -0.81507520654046       -2.70199860219053
H            4.13038278357007       -0.14292300281245       -2.35735888038622
H            3.22335540430694        2.19470794477817       -0.55288940443518
H            4.54007985784343        1.08978611466651       -0.14631700729036
H            3.20665705912291        1.31969618766150        0.97836534774785
H            2.33981039774835       -1.80788229130715        0.16273636409396
H            3.08953713836920       -3.78781467436871       -0.82163311504265
H            3.64977455424974       -6.14219139405976       -0.46553831513665
H            3.80783428843592       -8.15302227043770        0.58165511747256
H            4.22973558694816      -11.03823630106200        0.70629707984752
H            5.98986049658743      -12.74126663754375        0.96204498446430
H            8.34457349531809      -12.07651417221057        1.21836997645664
H            8.98722325519176       -9.70132046575844        1.22738952426494
H            7.81272407461010       -6.01543306960681        1.81044716947717
H            9.21163624337568       -4.28379892207938        2.73808393059989
H           10.46385064572777       -2.76223676900144        2.90418283465090
H           11.88012786472682       -0.96919141569540        3.73370612820281
H           10.91325367512507        1.23095390230351        4.25235662878425
H            8.53420952263424        1.62162334322631        3.95713377630321
H            6.59286471596296        1.74381943169862        4.13794569196146
H            4.17280987863247        1.94478674629300        4.13539032204633
H            2.78252008156328        0.11488586337914        3.25485259816682
H            3.83594884181057       -1.86964022110704        2.31327444770128
