56
 energy: -11.479708128075 gnorm: 0.000442005429 xtb: 6.5.0 (97a52f5)
C            1.22321999414803       -2.38540466275325       -1.21785734158453
C            0.22789951295028       -1.30944312089912       -0.95389850798645
C           -0.84781907360014       -1.53032473743956       -0.10392440398599
C           -1.75305230470515       -0.52835751118348        0.16441825100248
C           -1.61224739685874        0.73319615366679       -0.40714030769948
N           -2.51889007984026        1.79307095379575       -0.09286260740554
C           -2.67202428333579        3.01319109458147       -0.76045867692521
C           -2.45718475892041        3.26534187399706       -2.15201569567714
C           -1.99285117116998        4.52030957973131       -2.57603170370759
C           -1.74205915467340        4.77778117713196       -3.89579150006542
C           -1.95941929260584        3.78956947699595       -4.86558870408452
C           -2.45284700077710        2.57195854377147       -4.51271238402746
C           -2.75709004924227        2.26294083686433       -3.15384191351506
N           -3.36158624330801        1.14955667592426       -2.84048381922099
N           -3.12148917926451        3.94835014123056        0.13401057539258
C           -3.51610424790059        3.36037068245661        1.42774977808043
C           -4.94354996675605        3.67609153356167        1.79373360453912
C           -5.93392959045821        3.66765055735499        0.82613177398749
C           -7.24864693464272        3.91870810162539        1.16045407653216
C           -7.58774987357423        4.18002638281166        2.47190664537233
C           -6.61074849338981        4.18747139173561        3.44608134360612
C           -5.29663307374568        3.93499700185012        3.10922221957145
C           -3.20932925513984        1.83423363560695        1.23038791790050
C           -4.43281552119821        0.95489590520876        1.22448712127092
C           -5.05414776997619        0.58734798073302        2.40699147686047
C           -6.20292650110954       -0.17681598088187        2.38622421208999
C           -6.74104019246183       -0.58387412506987        1.18253499964717
C           -6.12634249093471       -0.22950313338998       -0.00043407480233
C           -4.97977599234401        0.53533038288156        0.02389780243561
C           -0.52612319491856        0.95406947101387       -1.24927434669610
C            0.37782679662518       -0.04890552472879       -1.51654811994103
H            0.75287982106368       -3.36940587027513       -1.20067565205271
H            2.01212265835510       -2.37601684232854       -0.46462839026370
H            1.69027683809038       -2.25904661655847       -2.19546231447071
H           -0.96711890496636       -2.50011321169657        0.34837740566058
H           -2.58649270466461       -0.71659381074324        0.81680430950512
H           -1.80659927560993        5.27730797971566       -1.83431506151979
H           -1.36830526424719        5.74341133407244       -4.19428358302712
H           -1.74609116478752        4.00461121634749       -5.89991832084767
H           -2.64414786895092        1.82642875890797       -5.26410998173794
H           -3.56370056379932        0.49428864961170       -3.54376234159851
H           -3.59545378360518        4.81136274842443       -0.13173711937490
H           -2.84941986005651        3.77782417215099        2.19626102707238
H           -5.66462969385749        3.44632955240731       -0.19204856795253
H           -8.01045472176747        3.90547672523621        0.39809793999183
H           -8.61442845450611        4.37503721238304        2.73594387014915
H           -6.87394731794033        4.38750894502629        4.47205561669842
H           -4.53435159770199        3.92993668739208        3.86953951986535
H           -2.50942861974349        1.47732012914377        1.99751114070698
H           -4.63747309075569        0.91710441107169        3.34329751136059
H           -6.68363769287363       -0.45062032989834        3.31125154150390
H           -7.64032601140473       -1.17789245112495        1.16639896378457
H           -6.54158812729964       -0.54845482349243       -0.94251577586248
H           -4.48130791238085        0.80376134394390       -0.89313732616560
H           -0.39685146905192        1.92808262475749       -1.68574573502597
H            1.21591156557569        0.13950072735049       -2.16569636735453
