28
 energy: -5.414698686575 gnorm: 0.000733347189 xtb: 6.5.0 (97a52f5)
C            2.37538313871013       -0.14520672353239        0.06182249753173
C            0.89066087574324       -0.03807248568198        0.02331745357645
C            0.08931548380366       -1.16840782798703       -0.06720379472616
C           -1.28222163886008       -1.06107250037016       -0.10818957020409
C           -1.90067225287227        0.18573745995277       -0.06183464066327
N           -3.30269087304976        0.27904670776621       -0.10262057880057
C           -4.06620198707813        1.44515308328340       -0.06054219511068
O           -3.57460671989709        2.56004939545853       -0.01149909485587
C           -5.53120005809143        1.28729186711615       -0.09520399739114
S           -6.55750002597148        2.20145525839175       -1.14225456539374
C           -7.94497991675175        1.35947186130886       -0.50790572122780
Br          -9.70004032761441        1.71468212745559       -1.12831019088357
N           -7.64828970976779        0.49247503225050        0.40645669953768
C           -6.29789379191956        0.44218734087091        0.66535757422162
C           -5.75020253384909       -0.47324441581359        1.69926571425257
C           -1.09382575599404        1.31397718885792        0.02658737804031
C            0.27663614340635        1.20515752206443        0.06701175208227
H            2.69843513747089       -1.18517918995195        0.11295099382987
H            2.77863505107276        0.37140948284266        0.93328832792174
H            2.81814146147284        0.29914679691030       -0.83004776073644
H            0.55310171379893       -2.13896905950500       -0.10578428165197
H           -1.89195115532530       -1.94473573777730       -0.17658074048639
H           -3.80699951022055       -0.59299659725194       -0.21021469141256
H           -6.49213642706633       -0.65362288595477        2.47698340880852
H           -4.86433281351884       -0.04732689963293        2.17118402105264
H           -5.48139275426605       -1.43584665115288        1.26451294242237
H           -1.56590824287410        2.27867644293328        0.06033589517908
H            0.88744748950929        2.08911340714882        0.13277716508757
