54
 energy: -11.345713678162 gnorm: 0.000336598342 xtb: 6.5.0 (97a52f5)
C            1.91552949239717       -1.44778182483120       -1.02281491393221
C            0.56366395165554       -0.92098965041427       -0.68803977402537
C           -0.40467211270465       -1.74804153080727       -0.13408966879694
C           -1.64614289820377       -1.25752814754504        0.20029385480087
C           -1.96094821091533        0.08334489616514       -0.00846460457809
N           -3.22607095663135        0.58652186293134        0.36966364840489
C           -3.72237720005322        1.89511463151035        0.14977030309652
C           -4.20079252934593        2.60951007749137        1.25241221886080
C           -4.56066629303066        3.92257551363972        1.14500703961732
C           -4.43960116851873        4.61444708931397       -0.06406342756284
N           -4.92518667808496        5.94295672105397       -0.11564627461885
C           -5.78255339604430        6.51599406546832       -1.08135308403808
C           -6.41538972462504        5.73764268488312       -2.04774944493806
C           -7.26906193542560        6.30754147397995       -2.96354019666416
C           -7.53109978842310        7.67105095575778       -2.93906258226847
C           -8.43430468883347        8.29457209298283       -3.94545434661924
C           -6.90182920937163        8.44924365672449       -1.97668455121885
C           -6.04683181357810        7.88364002423959       -1.05903740651572
C           -3.90487095457337        3.93638586196235       -1.18597255616398
C           -3.66006060490060        2.54413478321341       -1.10713073768235
C           -3.43463959909029        1.77161944210087       -2.34123978673257
O           -3.50437820973101        0.55349356067546       -2.37383575387736
C           -3.16935779951896        2.50816794445217       -3.58644034300383
C           -2.88248076570233        1.81489805853380       -4.75523642396728
C           -2.63495750439678        2.48476044054243       -5.93027531998535
C           -2.67095686053622        3.86724830032130       -5.95722524664403
C           -2.95520180805663        4.56850778698761       -4.80910322303003
C           -3.21024776991287        3.90689605541569       -3.61486651448483
C           -3.49956154094475        4.67567151312278       -2.39464078405442
O           -3.35330409075468        5.88740616808607       -2.40515875856576
C           -0.98191594459945        0.91387582989274       -0.54901412525753
C            0.25741265935392        0.41916300463147       -0.88205903401307
H            1.87302144647466       -2.50673749495591       -1.27928767364419
H            2.59523630897218       -1.33246843017609       -0.17799783492480
H            2.34363366424696       -0.91837252580253       -1.87459125601110
H           -0.17278950312841       -2.78580543908937        0.03414227466522
H           -2.39152273108029       -1.90843721900303        0.62237695017493
H           -3.71637455557905        0.03544249925504        1.07088475486256
H           -4.26442552085366        2.10862678187116        2.20252214168857
H           -4.95420273509553        4.44471102856826        1.99950989665795
H           -4.82299435952387        6.48315645789372        0.74080500861271
H           -6.22533384578149        4.67959186050048       -2.06926327349163
H           -7.74219558373916        5.69551173428528       -3.71220646113237
H           -9.14604151587506        7.56910638909855       -4.34036160148109
H           -7.86203852960510        8.69505337173569       -4.78271623340191
H           -9.00568704072463        9.11252168335271       -3.50552731666114
H           -7.08889987984777        9.50929369945949       -1.95654721234824
H           -5.56231732162400        8.49627971482052       -0.31915392371798
H           -2.85735708131689        0.73922276089674       -4.72230985517905
H           -2.41241120064895        1.93359518633517       -6.82901779600146
H           -2.47561872832511        4.39366392658168       -6.87687318359424
H           -2.98344688428605        5.64456074498925       -4.81707499280904
H           -1.20771272452821        1.95420705793858       -0.69956619464256
H            1.00549427495842        1.07337286898563       -1.29608439912887
