32
 energy: -6.652033567787 gnorm: 0.000324658501 xtb: 6.5.0 (97a52f5)
C            2.49922314706186       -0.30753783729939       -0.53349645222184
C            1.04531446813739       -0.12990534724615       -0.26436155713377
C            0.32339101042962       -1.10969869634972        0.40487856367487
C           -1.01510897478251       -0.93976854096831        0.67893082773247
C           -1.68079524295127        0.22421373032915        0.29531834788240
N           -3.04768443052363        0.38056096644926        0.58908078749146
C           -3.89249634403786        1.46305464405951        0.28026970655176
C           -5.23183834978959        1.38355940282291        0.71199217820945
C           -6.09982850390240        2.38895572557677        0.44923626848377
C           -5.63784119349818        3.50830674273546       -0.26207383460264
C           -6.47044951025078        4.60138013572228       -0.58109623229124
C           -5.97979322848453        5.66714075567905       -1.27663545427043
C           -4.64210441344442        5.68644055670284       -1.68146355159084
C           -3.81500804875678        4.64276763910253       -1.38530174946974
C           -4.28168430039096        3.52042135082157       -0.66714180346364
N           -3.42413896060302        2.50433470556233       -0.39338758342210
C           -0.94864947329104        1.20464929180832       -0.36802153823966
C            0.38880395122362        1.03465036446959       -0.63966300028853
H            2.73745503012179       -1.35360380440760       -0.73002779245996
H            3.09356829401641        0.01852104327738        0.32088711592987
H            2.81315541099734        0.27197849709977       -1.40252931564705
H            0.82591496519705       -2.01101781637944        0.71203077173865
H           -1.56279785355191       -1.70786109514709        1.19638137331596
H           -3.47849034589258       -0.38724172676636        1.09332001088758
H           -5.55578111419315        0.51275746209962        1.25457057808083
H           -7.12541765258618        2.34260494130932        0.77274055307574
H           -7.49999150122305        4.58214628856154       -0.26769797431348
H           -6.62302719755339        6.49788389147172       -1.51641702717604
H           -4.26399320751858        6.53277660253904       -2.23124884143418
H           -2.78506751533921        4.65630127372726       -1.69599893692961
H           -1.44711070537558        2.10600850322536       -0.66590621047449
H            0.94004179075230        1.80868034941111       -1.14581822762760
