34
 energy: -7.329840271183 gnorm: 0.000958782378 xtb: 6.5.0 (97a52f5)
C            3.00443282454692        0.00293968188197        0.49021997609154
C            1.54147054917466        0.01159878408731        0.21823726656817
C            0.85464879756490        1.20415546380755        0.02164574348651
C           -0.49453509773913        1.20775095236522       -0.23597559241699
C           -1.21599695264136        0.01558500982914       -0.31961857416289
O           -2.57630643379388        0.01595478217399       -0.53487331923574
C           -0.52247933254027       -1.20902214990243       -0.15136702687311
C           -1.21313897721514       -2.49134437901754       -0.22474594986335
N           -0.99024185388523       -3.56835227978870        0.62714888451824
C           -1.80267209194614       -4.64578757747541        0.29580245215930
O           -1.85946085381843       -5.72560745503944        0.85815240917638
N           -2.54320763766160       -4.22927321352354       -0.82331633565140
C           -2.18060749630700       -2.91485256257454       -1.13743701573773
C           -2.89752380301835       -2.52742059953832       -2.33066977907626
C           -2.88726600935993       -1.37072096292136       -3.10463779238138
C           -3.68835513131484       -1.31556716407631       -4.22090075620140
C           -4.49307583732384       -2.39555388338225       -4.57848110852865
C           -4.50636674521311       -3.54858332397289       -3.82545704047311
C           -3.70402204948468       -3.61604089458223       -2.69724459414631
C           -3.49832453267685       -4.71570689145907       -1.74271125153596
O           -4.03633089044350       -5.80451222637633       -1.76403998359745
C            0.84117384232588       -1.17585610918802        0.12859997466176
H            3.36811163269817        1.00063840748302        0.73713468562012
H            3.55691933362175       -0.34979957115326       -0.38112011837035
H            3.23963534720392       -0.65258505844002        1.32924538186217
H            1.39305169375644        2.13466339301873        0.07839933900044
H           -1.01065336778744        2.14084421241463       -0.37293848186631
H           -2.92525528624587        0.92728751906267       -0.53196055982397
H           -0.36783212503579       -3.56311006618820        1.42655014501582
H           -2.26715071464405       -0.54146667493807       -2.81481881160821
H           -3.69467941319897       -0.42492530570736       -4.82739919442080
H           -5.11164496379972       -2.32822869987518       -5.45837003113586
H           -5.11753915752264       -4.39204215264046       -4.09556195801794
H            1.36580273374814       -2.10446900434792        0.26234901700969
