36
 energy: -6.687086105947 gnorm: 0.000942347149 xtb: 6.5.0 (97a52f5)
C            2.80349691074795       -0.17889331883003        0.04925069037103
C            1.31678432712713       -0.18409778768736       -0.03315819492229
C            0.59688228699946        1.00022251346924       -0.12499992671545
C           -0.77720828627027        0.98862282594068       -0.19638334108220
C           -1.48979412569625       -0.21084775207065       -0.18457059124083
O           -2.87203997153989       -0.22089021536051       -0.22318442821496
C           -0.76452935674735       -1.42404344695924       -0.10990245027277
C           -1.45346099248869       -2.72214570335351       -0.10171882306702
N           -1.24387726197103       -3.67631653435257        0.79839886597094
C           -2.02356288147609       -4.71865491286507        0.44176601342297
C           -2.09608197716543       -6.00488357863861        1.17652153789837
C           -2.71963228660535       -4.42252564161719       -0.72207069360207
N           -2.36042810162222       -3.15208967478207       -1.06976612115150
C           -2.79360512642042       -2.46964970407202       -2.30514156765744
C           -3.99362202129360       -3.17532429245250       -2.95005673887726
C           -3.83559702508957       -4.70780024658200       -2.94342840261571
C           -3.65887747316816       -5.26578573047490       -1.51731598762307
C            0.62169561286512       -1.38063538357111       -0.02269102851043
H            3.20040355406008        0.83661870998570        0.02847785774294
H            3.24004487586632       -0.72442532889912       -0.78822894072804
H            3.14273593531193       -0.65065979566356        0.97219426922627
H            1.12766850767655        1.93681371551859       -0.13521815314608
H           -1.31910081598047        1.91541061652450       -0.25720684845565
H           -3.21290508294469        0.69626114457677       -0.22944216450445
H           -1.50198379664436       -5.95997776418835        2.08896942482516
H           -1.71511539578870       -6.82335149828930        0.56538930471161
H           -3.12469387147131       -6.23635932268649        1.45424099497422
H           -1.94325329869908       -2.44127060310572       -2.99314689575526
H           -3.03069624196218       -1.43110240087311       -2.05528664440978
H           -4.15077034176360       -2.80837085322311       -3.97364298619164
H           -4.90419627349383       -2.90831517901138       -2.40021024814554
H           -2.95964650188114       -4.97779930740633       -3.54594753642600
H           -4.69108453224360       -5.18497398197615       -3.44123278617670
H           -3.28721063207755       -6.29730338053257       -1.54389485025864
H           -4.62611957989020       -5.30471696202803       -1.00360030236774
H            1.16632124174091       -2.30509922446258        0.04668769297676
