18
 energy: -4.721177102527 gnorm: 0.000446173078 xtb: 6.5.0 (97a52f5)
C            2.95583353544514        0.00547861838134        0.04063634462372
C            1.46556071569736        0.00357192284560        0.01635351804352
C            0.74120567407635        1.18976369850702        0.02480992331572
C           -0.63257613785965        1.16913506934457        0.00257401605853
C           -1.34901104084667       -0.03634483109444       -0.02877589251998
O           -2.72939949332366        0.00512812849876       -0.05175015184852
C           -0.61904685666425       -1.24777466261676       -0.03576419770338
C           -1.26494962065176       -2.60496078259558       -0.06626385284383
O           -2.50417615066954       -2.68840737700322       -0.08991489060888
O           -0.49152045926519       -3.58167567747604       -0.06573796678290
C            0.76822309931838       -1.19146037458493       -0.01253259166924
H            3.35512063310451        1.02226728470151        0.03462002335156
H            3.36012044627959       -0.51571133502533       -0.83031501645196
H            3.33118295805596       -0.49463314135520        0.93649569357673
H            1.26909154163224        2.12921681360940        0.04942786172657
H           -1.18004528504945        2.09605080060950        0.00868080155899
H           -3.03619450665841        0.93842660293089       -0.03796833151783
H            1.32169094737904       -2.11421075767711       -0.01766529030880
