16
 energy: -2.981789508579 gnorm: 0.000733157530 xtb: 6.5.0 (97a52f5)
C            2.97389091423886        0.02911678039427        0.04181433401900
C            1.48487993885054        0.01882467692840        0.02022578099536
C            0.75722319879779        1.20189681272088        0.01434980063235
C           -0.61843703374197        1.18672634107246       -0.00510185290795
C           -1.31842740192775       -0.02187467709907       -0.01921130391851
O           -2.70307926609273       -0.06859541389519       -0.04003546439883
C           -0.58187894592850       -1.20786911426946       -0.01201145883728
C            0.79319118608050       -1.18438863950903        0.00764043064123
H            3.36564659678938        1.04670894259865        0.03111053346577
H            3.37771976588324       -0.49231026738069       -0.82676347827548
H            3.35176991005192       -0.46441071898338        0.93796171442999
H            1.28353586445439        2.14098956608210        0.02528429229132
H           -1.16874075733728        2.11044835355564       -0.01023119455197
H           -3.06683554754440        0.83947108947561       -0.03444730577494
H           -1.11513856267194       -2.14168032585089       -0.02165043552227
H            1.34892014009794       -2.10651340584030        0.01334560771223
