40
 energy: -8.246976326380 gnorm: 0.000158205832 xtb: 6.5.0 (97a52f5)
C            2.43446578765858        0.13143076700675        0.01896339872156
C            0.94631930164144        0.08046009987114        0.00836521650993
C            0.26862586445615       -1.13043686111361        0.01586430965428
C           -1.10544456395522       -1.16709384403961        0.00161580124521
C           -1.86013200067233        0.00704421843607       -0.02171623037697
O           -3.25364313535940       -0.12699054450123       -0.03743233396585
C           -3.98453103136737        1.09756189834220       -0.07494294230806
C           -5.46627867084036        0.87791710724613       -0.10756176213285
C           -5.94808629207958       -0.37574868348542       -0.11617695151094
C           -7.36199814212620       -0.66184230727072       -0.14885470510832
O           -7.72509666861707       -1.83256770567594       -0.15656337959143
O           -8.25140349529795        0.39137388132093       -0.17042997416326
C           -7.75977664569464        1.67855242638367       -0.16145367660795
C           -6.39063590522591        1.97085604503586       -0.13146725553273
C           -5.96682332636155        3.32284994194364       -0.12439583889361
C           -6.85757738236143        4.34534176513227       -0.14460261841509
C           -8.25306998469747        4.09332902505960       -0.17433422508099
C           -9.20196491996293        5.13291884558453       -0.19470999050585
C          -10.53876464897628        4.85455732085781       -0.22288312209011
C          -10.98348039187490        3.53234268437534       -0.23243716522344
C          -10.08453851182001        2.50439689377751       -0.21330778527043
C           -8.70638032978871        2.75812703560579       -0.18357947055952
C           -1.17262608342298        1.22196071853299       -0.02844010350374
C            0.20301887185366        1.25185089695065       -0.01405458958189
H            2.86642692484827       -0.86844389178650        0.06756000915728
H            2.79715433950110        0.69296417831097        0.88037240427169
H            2.81176022419666        0.61403859588589       -0.88306608703767
H            0.83081608604660       -2.04829506782114        0.03258229510152
H           -1.62819968334488       -2.10703907809366        0.00733463533532
H           -3.67101921429678        1.64971804674237       -0.96716620652828
H           -3.71323964032622        1.67800466289123        0.81312343014021
H           -5.26405237930003       -1.20291075734205       -0.09836134620427
H           -4.91299376571757        3.53753485979636       -0.10239674097610
H           -6.51462132565106        5.36527717972017       -0.13830746694546
H           -8.85953319126871        6.15318990356330       -0.18742613416707
H          -11.25610528601751        5.65852806915477       -0.23799056227113
H          -12.04038706025313        3.32337002491264       -0.25490720112673
H          -10.41773128115842        1.48087430385972       -0.22036376133884
H           -1.72016371728865        2.14637102269511       -0.04463356608531
H            0.72065127492315        2.19590632213499       -0.02068830703302
