65
 energy: -14.072608116978 gnorm: 0.000696500782 xtb: 6.5.0 (97a52f5)
C            2.40608017386917        1.33407914157610        0.11388797278537
C            0.97572679135076        0.92277237317911        0.06398880502788
C            0.61173844112453       -0.41568693116728        0.11217709101435
C           -0.71759074323529       -0.78553341124211        0.06482121298869
C           -1.69701695053476        0.17373023769160       -0.03104504166863
S           -3.43167962540255       -0.34606320781999       -0.09700025920685
O           -3.54595108982454       -1.09177059704111       -1.39345018972616
O           -3.64047943042323       -1.12435538398008        1.16805193312921
N           -4.09627744847222        1.16529759586228       -0.09914152600929
C           -5.36846722764879        1.36481899503686       -0.15982290077025
O           -6.28330030072886        0.32242845762121       -0.22671478196827
C           -7.63097281560931        0.61380393332533       -0.24603463393963
C           -8.52790656848750       -0.45490247083426       -0.27550219549688
C           -9.88570002534090       -0.24594164575799       -0.30101101907710
C          -10.38618434460010        1.03562592910916       -0.28888441482443
C           -9.53419609314491        2.13459444169804       -0.24686162752997
C          -10.03159163053899        3.49453485676281       -0.24935673495345
C          -11.29713687027506        4.11630826001665       -0.27543262903782
C          -12.60703769976667        3.44872899412673       -0.18704554641323
C          -13.56683475522433        3.66209079619176       -1.17268459285731
C          -14.79745777085970        3.05006091667938       -1.09659733943842
C          -15.09486124732793        2.22414949359183       -0.03101620915724
C          -14.16063417891441        2.01821503222953        0.96451063711586
C          -12.92907356656776        2.62828620901136        0.89269480828651
O          -11.15188039160475        5.48534784899340       -0.39853348498371
C           -9.79582825995595        5.75393239531519       -0.43051801013337
C           -9.03690520695351        6.92142287295241       -0.56017289353523
C           -7.66430912313132        6.82176156120263       -0.59648811136962
C           -7.00566301232963        5.59456907777232       -0.49894989987122
C           -7.70432471035914        4.40006500250666       -0.34351642130684
C           -7.18187854417670        3.03837907604317       -0.23907512611168
C           -5.82296026187542        2.74525021686521       -0.15022692260849
C           -4.77442855434098        3.78175675591322        0.01114183594978
C           -4.62478387761231        4.46717314506117        1.22001490905470
C           -3.63181865215955        5.40553902387860        1.37685016187958
C           -2.76309909131856        5.67629036689080        0.33842606633561
C           -2.88733076957761        5.00105587379029       -0.85923208943164
C           -3.87735889819089        4.06097359300432       -1.02257040423315
C           -8.12420509940790        1.93900325681441       -0.24195027930631
C           -9.10431899507760        4.53469954099204       -0.32531755235542
C           -1.35033948722539        1.50364090359248       -0.07802727479469
C           -0.02380776902532        1.87925488030814       -0.03101056025043
H            3.06743282776122        0.46905366025923        0.16993163448317
H            2.59909839714122        1.95876376277012        0.98646579964498
H            2.67664389051806        1.90310024165527       -0.77605843016903
H            1.37719942057700       -1.16868024400264        0.18697575798364
H           -0.99928734335464       -1.82503401288468        0.10198689443368
H           -8.12713307656544       -1.45293923528511       -0.28151547676333
H          -10.55935336064618       -1.08668798865588       -0.33105745966079
H          -11.44750305001057        1.19427451653590       -0.32427365919896
H          -13.32870082441149        4.31133474608175       -1.99756057302977
H          -15.52997559102565        3.21598696973580       -1.86959952656044
H          -16.05845522563720        1.74534604604433        0.02669191029580
H          -14.39728717078416        1.38139520803406        1.80082146105531
H          -12.20311807008629        2.48422473551233        1.67442940019977
H           -9.53639256960760        7.86988759382136       -0.64191970874526
H           -7.07870078323505        7.71922152634869       -0.70865037023524
H           -5.93547326864232        5.57885520541492       -0.56426383347369
H           -5.29969197624669        4.24679014245798        2.02871703255328
H           -3.53058133766783        5.92952881814711        2.31287573582161
H           -1.98581063711821        6.41194331340487        0.46402588745211
H           -2.20555057485051        5.21016875201103       -1.66715560935501
H           -3.97526253782172        3.52818178247306       -1.95244464207510
H           -2.12486552821719        2.24661927346926       -0.15363273161957
H            0.24591407083952        2.92064777888892       -0.06813425424562
