66
 energy: -13.035927900975 gnorm: 0.000835710490 xtb: 6.5.0 (97a52f5)
C            1.37826772771093       -1.51918862938715        1.47201292846136
C            0.18982874075972       -0.98113003653900        0.75450582382649
C           -0.62926194945681       -1.81335022848364        0.00437225326137
C           -1.72618390232601       -1.30494254503627       -0.66289088594621
C           -2.01204165643108        0.03779554136417       -0.59457021665135
S           -3.44596757425721        0.68469292048954       -1.47471887194634
O           -2.93664886135543        1.25797340696912       -2.77348375275920
O           -4.49846179852232       -0.39536650856464       -1.53914202867036
N           -3.82886087565720        1.98645582269074       -0.43200532312750
C           -5.22307291675719        2.17844515959555       -0.33105896099986
C           -6.05060059405445        1.57882680130154        0.62347273060094
C           -5.69122829148272        0.66586870785248        1.64330497627549
C           -4.43964368964430        0.19863386355448        1.84193049591956
C           -4.02734336957216       -0.72441297181884        2.87096089795314
C           -2.70931527156641       -1.18830423147209        2.88490680056341
C           -2.27705435767331       -2.06778446238002        3.84958943225807
C           -3.14852435993404       -2.50583197937366        4.82699204579589
C           -4.45566403323816       -2.05949707361081        4.83376268141306
C           -4.89411592974440       -1.18002989405662        3.86960304744480
S           -7.69197710540266        2.13219709736470        0.41657341606081
C           -7.29553645712329        3.20939318284409       -0.89111026459755
C           -8.30908926920721        4.03303173814178       -1.52543712257278
C           -9.61985613067534        4.01517145770973       -1.03575647415406
C          -10.60999368451147        4.77452026120398       -1.60413704626716
C          -10.34473873044546        5.59678041961802       -2.70415220803842
N          -11.35668243486922        6.37907638925406       -3.28862865619871
C          -12.70126392776476        6.44271873646856       -2.71641122452798
C          -11.10703699568688        7.18701585025197       -4.48248509434514
C           -9.03676708032769        5.61551115513552       -3.19996377763509
C           -8.04904091447445        4.85721647300583       -2.62620888314804
C           -5.94202319403975        3.12418020509126       -1.16691036959123
C           -5.22514622429124        3.93768675501113       -2.18064662331144
C           -4.94962395633014        3.48245864333991       -3.51739731483915
C           -4.29319539612177        4.38838832596486       -4.26744454061553
S           -3.98883114053662        5.83051643541513       -3.36159663247673
C           -4.75089838628961        5.19242230936995       -1.95004711894018
C           -1.20414255424143        0.87713234132165        0.13565625854214
C           -0.10752846490941        0.37284078954128        0.80546673678223
H            1.31314529201664       -2.60108197884011        1.59048090079221
H            1.46420279438998       -1.08168076414813        2.46718578769950
H            2.29426414233377       -1.29572625121303        0.92451686685323
H           -0.40375486894768       -2.86431020610932       -0.05127759674013
H           -2.36887178742447       -1.95190495566817       -1.23673792658605
H           -3.50405588861621        2.59144393959330       -1.13312454011309
H           -6.48359724130880        0.33300328814826        2.28878208223752
H           -3.67687920103321        0.52888089239550        1.16465840767695
H           -2.03387971661936       -0.85746170280473        2.11727431476984
H           -1.25799126652299       -2.41813664112979        3.84117668617759
H           -2.80960172122474       -3.19519477947878        5.58279407150608
H           -5.13454432236132       -2.40095216014066        5.59807991516825
H           -5.91246430792344       -0.83637820501244        3.89048127494278
H           -9.84394441493989        3.38721661685223       -0.19165571000116
H          -11.60658665341698        4.73289931343595       -1.20324789773466
H          -12.64540050923906        6.73597931125878       -1.67002693301205
H          -13.18329814612073        5.47002930882974       -2.79073981904091
H          -13.31762547829527        7.17122230011955       -3.23857290415923
H          -10.68740828982965        6.56717710188756       -5.27217825762580
H          -10.41026025407070        7.98958102979755       -4.24958138377820
H          -12.02779081413503        7.62962956438964       -4.85627594701366
H           -8.80168006654284        6.24315136199780       -4.04053611347716
H           -7.05634789404605        4.89870128213605       -3.03083655023472
H           -5.23283961103770        2.50063479370131       -3.86533424464662
H           -3.98725635530107        4.24815338996433       -5.28680267007359
H           -4.84417440127170        5.71946876269385       -1.02085702269037
H           -1.43494074114233        1.92769847015289        0.18096048866322
H            0.52644673303811        1.02900468802884        1.37671758663624
