65
 energy: -12.900651717088 gnorm: 0.000562238839 xtb: 6.5.0 (97a52f5)
C            1.35635017492552       -1.70284158102854        1.41688212693298
C            0.16418746338455       -1.15389488621502        0.71390978174790
C           -0.71852747939084       -1.98789302089197        0.04131165557790
C           -1.82227253464981       -1.46738699142077       -0.60515366235340
C           -2.05270195548325       -0.11229475158263       -0.59059488028532
S           -3.49832457613545        0.54707454290343       -1.43826394073034
O           -3.03719734238811        1.01890061631696       -2.79411080947227
O           -4.60334979598159       -0.47771618408375       -1.37554026203582
N           -3.76462236635634        1.93967593139196       -0.47632744176312
C           -5.13481715092653        2.23544173280220       -0.31648692042575
C           -5.97326914146759        1.68603889517265        0.66011671256357
C           -5.64365397097103        0.75494760748059        1.67118698784629
C           -4.40717705311804        0.24194745444659        1.85904682985815
C           -4.01404842500874       -0.68832071843397        2.88724954387743
C           -2.69919697628939       -1.16159912163663        2.91316280287837
C           -2.28229346656112       -2.04538359458522        3.88028593328447
C           -3.16657356752670       -2.48022294854492        4.84753705712635
C           -4.47139912849396       -2.02693782373680        4.84108887579422
C           -4.89456955773021       -1.14226538771718        3.87502707188340
S           -7.58552114379267        2.34106225893135        0.50114021568043
C           -7.15174307199007        3.40682845489711       -0.80022360101965
C           -8.09499500647713        4.28839400884830       -1.41215050762341
C           -7.88651083025342        5.13045367236835       -2.47744177675090
C           -9.01666103430358        5.87907367626176       -2.85761108999811
C          -10.13261725456477        5.63739571703043       -2.09422759584368
N          -11.37286631800673        6.24747789509511       -2.25427174887177
C          -12.48946480333042        5.93713477488505       -1.36682220735755
C          -11.58345759285957        7.30427153944563       -3.24156828564911
S           -9.76203638406204        4.44454783702289       -0.88027192011941
C           -5.80718067280320        3.24523015156843       -1.11323291015002
C           -5.07809547006967        4.03686853326117       -2.13333340933813
C           -4.73478919529075        3.49623758267859       -3.36325777913822
C           -4.06482564476290        4.28891350399542       -4.25602608075010
C           -3.75948671192716        5.58364949914744       -3.90011323927203
N           -4.06133432388591        6.13559798369971       -2.73568362854535
C           -4.70294679630569        5.35581252130304       -1.88741130842636
C           -1.18304332012790        0.72767506011766        0.06442864385229
C           -0.07956196111036        0.21158534888200        0.71359877729202
H            1.33325649638957       -2.79249378600496        1.44804930666961
H            1.40101504853263       -1.34198100251022        2.44495487454534
H            2.27536537254730       -1.40121835865227        0.91350368212533
H           -0.53876472679097       -3.04911740897002        0.03035855659776
H           -2.51351746778245       -2.11439917796861       -1.11974656127963
H           -3.41809786904689        2.49159538870123       -1.21319911729847
H           -6.44078400136148        0.45742603839174        2.32791638777763
H           -3.63985698963016        0.54676736260689        1.17528499041336
H           -2.01391737132709       -0.83456911463063        2.15256041544717
H           -1.26491800571111       -2.40073559052643        3.88226439043477
H           -2.83932846396369       -3.17292324640478        5.60540448444890
H           -5.16069992126900       -2.36795931020434        5.59618713368552
H           -5.91202323886601       -0.79555630702129        3.88393887565526
H           -6.94054135939199        5.21441276070902       -2.98462278272547
H           -9.00778242693383        6.58082335388151       -3.67619681165123
H          -12.31702616840306        4.99031969679417       -0.85975672351318
H          -13.41340511741597        5.85875945608342       -1.93625172923954
H          -12.59754348386444        6.72018077297060       -0.61919571023847
H          -11.44915338922258        6.90693719606186       -4.24558537956116
H          -10.87213055872318        8.11172752280727       -3.08003484348244
H          -12.58942370982935        7.71087487155383       -3.16031916429923
H           -4.98315279221440        2.47415540555891       -3.59302234031544
H           -3.77851623821455        3.90308659266925       -5.22058703849947
H           -3.23423992258677        6.21187240061647       -4.60406735078684
H           -4.95765516203710        5.78492220435568       -0.93126836061287
H           -1.37256650804657        1.78744544245897        0.06972734588810
H            0.60164236121420        0.86734704658214        1.22849545948183
