59
 energy: -11.583142711344 gnorm: 0.000546325468 xtb: 6.5.0 (97a52f5)
C            2.18162270553155        0.64283820763336       -0.09187581120284
C            0.71650789283302        0.49141208713203        0.12695799936015
C            0.08851177561803       -0.72634633344010       -0.09399803563212
C           -1.27469589001632       -0.85597490070550        0.08253261299456
C           -2.02305846785485        0.22859304461373        0.47470542222937
S           -3.81012780654201        0.07398998934068        0.69077119913428
O           -4.24886972147400       -1.26522316869101        0.14905003717546
O           -4.11386865619475        0.41191761718025        2.13077378358164
N           -4.18849480672084        1.24582559336458       -0.47015413107588
C           -5.51653821164330        1.65949188891406       -0.33467565312022
C           -6.50281402749756        1.05891822434205        0.51423389266251
C           -7.75893052714457        1.58599808623887        0.41364121944888
C           -8.93298650797421        1.16707589845990        1.15792983626636
C          -10.18053042989082        1.73279549235158        0.88280773165277
C          -11.30309557974795        1.35318129554359        1.57364635028834
C          -11.23457476606024        0.38685539470269        2.58283215144049
N          -12.38331422168958       -0.00218804151694        3.29621189315069
C          -13.71615035332462        0.46773810306153        2.91928593498637
C          -12.30145969100083       -0.88179262451157        4.46236537233912
C           -9.98517712023353       -0.17893015297976        2.86008617084801
C           -8.86379208672017        0.19954633120702        2.16532375014966
S           -7.76411039773430        2.86920126838769       -0.76632384713449
C           -6.05280421200759        2.70377223040953       -1.09699027579500
C           -5.35780990190183        3.53746066165648       -2.00677052080964
C           -4.02341189775419        3.48104356189758       -2.21952425811174
C           -3.26044053737344        4.31839204137413       -3.11238305060817
C           -1.87348158458294        4.15317322674342       -3.18483925048546
C           -1.11192364133556        4.93397641835960       -4.02381365233339
C           -1.71296646319415        5.89702125544570       -4.81024375623552
C           -3.08118203440903        6.07721434088559       -4.75349145662236
C           -3.84930463843065        5.30010185623820       -3.91606408883677
C           -1.41783876288009        1.44360321514666        0.69277363651245
C           -0.05504859756255        1.57703499651547        0.51642243810567
H            2.70160010824957       -0.30514513509171        0.04992134427184
H            2.61046193506789        1.36280428985686        0.60599398655526
H            2.38689756145665        0.99131311121534       -1.10457439286167
H            0.67491628658591       -1.57229970065725       -0.40902269381151
H           -1.76501616202201       -1.79930286278610       -0.09091377853128
H           -4.12305666356613        0.53344890057264       -1.15080147533692
H           -6.25411832774130        0.24868648573663        1.17699217065747
H          -10.24888386711003        2.47943570126448        0.11121806954399
H          -12.24799264005538        1.81247118794365        1.34546121244115
H          -13.87870531861553        0.31805818034443        1.85377266915488
H          -13.81762617831719        1.52590949068930        3.15202973146018
H          -14.48837627430582       -0.07927238054178        3.45602484022749
H          -11.53996808886287       -0.51981240843280        5.15030241387680
H          -12.04994562764940       -1.89349428900174        4.15042681693674
H          -13.24857189126669       -0.91046478813311        4.99689059649317
H           -9.90600547154527       -0.93066515662048        3.62466450156091
H           -7.91538146644923       -0.24918007670204        2.40119001207748
H           -5.94376141424307        4.26981740903682       -2.53129883692192
H           -3.46137377259719        2.75561956305041       -1.66389964110853
H           -1.40279505502466        3.40452556678912       -2.57116901798530
H           -0.04422243630501        4.79390642626524       -4.06751985681843
H           -1.11520356448576        6.50755804125482       -5.46698500307462
H           -3.54854216468289        6.83020484286138       -5.36677813334841
H           -4.91278516825861        5.45223636653919       -3.88000790932765
H           -2.01806911045034        2.28584941310684        0.99473977599098
H            0.41986393910356        2.52929471612707        0.67901895355835
