40
 energy: -8.445761789262 gnorm: 0.000771769602 xtb: 6.5.0 (97a52f5)
C            2.20197143445837        0.45440995084530        0.34271210182649
C            0.72615374932642        0.30319724572801        0.20749813377508
C            0.19126861632257       -0.73181757003841       -0.54711811912135
C           -1.17473852663367       -0.86900525247488       -0.68790603521899
C           -2.03742113929573        0.02850892902604       -0.08015813739253
S           -3.79214883281733       -0.18788896685342       -0.26857955874075
C           -4.30025521936350        1.51247291021622       -0.21122298252742
C           -4.92035837378234        2.00637337692126        0.92399228213252
C           -5.31475498599979        3.34123966168259        1.00527888561089
C           -5.95472023576398        3.88238418401871        2.16663276036505
C           -6.32629038816648        5.18009049168771        2.22026786906530
C           -6.09438760364273        6.06587732805890        1.11873084877355
C           -6.46363574188920        7.41118699928797        1.15059926319500
C           -6.22333240269347        8.23512750914921        0.06988281751682
C           -5.61241104575410        7.74748332368124       -1.06754229469640
C           -5.22214733725166        6.41030369974551       -1.15121388698725
C           -4.58467480428072        5.86757401154656       -2.31354813710904
C           -4.21237422531298        4.56996930247255       -2.36781424776986
C           -4.44175931017017        3.68537688225668       -1.26505140992993
C           -4.06592484914242        2.34271217507785       -1.29422706860719
C           -5.07280974304402        4.19144735266675       -0.10179223256096
C           -5.46492147948217        5.55989209559154       -0.04492537893868
C           -1.50821205407338        1.06757234026064        0.66768809861496
C           -0.14270538838734        1.20597543622639        0.80692681093318
H            2.67682872951258       -0.50860795046079        0.53535909577593
H            2.45852840462829        1.12039136348199        1.16763620072652
H            2.63484475946197        0.86767468594137       -0.56925638623103
H            0.85627395841060       -1.43214393607032       -1.02389055738683
H           -1.58595884468713       -1.67645307447700       -1.27069669825629
H           -5.09225269946683        1.34833306033199        1.75711312974650
H           -6.13689280331792        3.23043235484526        3.00337586160107
H           -6.80680746780675        5.57055794766927        3.10066153791819
H           -6.93988067680594        7.80203862895998        2.03327179365196
H           -6.51526599715937        9.27170620049507        0.11512233909665
H           -5.42992867889088        8.39876034803176       -1.90493687369870
H           -4.40557218117362        6.51806860278945       -3.15210135806756
H           -3.73482590662903        4.17873467759376       -3.24941830831639
H           -3.58093918505315        1.94295741776012       -2.16691121601173
H           -2.17479988633024        1.76800331380783        1.14089083017935
H            0.25936836220597        2.01902294250341        1.38724022706699
