40
 energy: -8.445836538280 gnorm: 0.000570386401 xtb: 6.5.0 (97a52f5)
C            2.06367490201832        0.07311637370323        1.05449846299549
C            0.68559476174785        0.03231810629534        0.49100735780729
C            0.09709958255757       -1.17684708945349        0.14618680651277
C           -1.16917052354964       -1.21484524407438       -0.40080636106633
C           -1.87326891458640       -0.04330085514539       -0.62113586377491
S           -3.49863013124789       -0.12052045524982       -1.33425978914863
C           -4.26140742200631        1.20292307611865       -0.42860900931981
C           -4.53380818279042        2.40247321132051       -1.06387804083222
C           -5.11828749089662        3.46463970447335       -0.37526370048404
C           -5.40716888778216        4.71882241942123       -1.00286268143761
C           -5.97900801213296        5.73111164615076       -0.31486021583415
C           -6.31909683733670        5.59017769086224        1.06917032015012
C           -6.91504689817430        6.61806590114398        1.80112892630161
C           -7.23090754103662        6.44465458645311        3.13316132476801
C           -6.96329234811894        5.25132471615546        3.77239917081699
C           -6.36717612650005        4.19190369713922        3.08701021945970
C           -6.07307123582225        2.93895071479177        3.71554205250048
C           -5.49793883611308        1.92737322882678        3.02903088305067
C           -5.16124747001079        2.06738845773071        1.64423411904659
C           -4.57212955086937        1.03807334729869        0.91054599412796
C           -5.43784168779701        3.29546591149356        0.99434626517804
C           -6.04239833901213        4.36267174721086        1.71925848756220
C           -1.28750074887680        1.16645396207128       -0.28709226238465
C           -0.02192395991205        1.20411987398216        0.26022533776035
H            2.26282082422589       -0.80415549460598        1.67091045578877
H            2.20882262567865        0.95529140313138        1.67929278260163
H            2.80668760582712        0.09946500864385        0.25674474410757
H            0.64239747730210       -2.09087861517473        0.30791773922472
H           -1.62353588815733       -2.15506755284070       -0.66512820368857
H           -4.28307978567915        2.51433375044283       -2.10368329686227
H           -5.15754169795803        4.84188600802287       -2.04243338157997
H           -6.18986434511139        6.66719365562536       -0.80220761344515
H           -7.12807231995674        7.55285408881990        1.31197134365176
H           -7.69243099682024        7.25051265236421        3.68022480158918
H           -7.21493151898132        5.12624757261323        4.81138667233931
H           -6.32146521805319        2.81600809820602        4.75544583033941
H           -5.28361102750800        0.99248412164219        3.51713053494497
H           -4.35048389613556        0.10109196650687        1.38936623706326
H           -1.83171951837029        2.07884614800664       -0.46005450050684
H            0.42912957798919        2.14877246002066        0.51192805078473
