55
 energy: -11.224811864130 gnorm: 0.000597365393 xtb: 6.5.0 (97a52f5)
C            2.49207237300379        0.28482829879812       -0.00290001069304
C            1.00807103511020        0.17256928459317       -0.04872123503181
C            0.35213865189435       -0.81961200148541        0.66558915613794
C           -1.02437256551910       -0.90653226794441        0.64720750435217
C           -1.76072934228093       -0.00597376379762       -0.08420742585510
B           -3.35195253791927       -0.04917750181189       -0.06705085516880
C           -3.93081207115239       -1.53356146059725       -0.10217939583537
C           -3.56292726822553       -2.43147804038728       -1.07510001806582
C           -4.11172954453667       -3.69713896860646       -1.08945445473531
C           -5.04129556888970       -4.07729911175712       -0.13163353598533
C           -5.62079408344775       -5.44888348028449       -0.12833867759844
C           -5.39116350836981       -3.16401304983459        0.85168202358967
C           -4.83631971812045       -1.90243175452496        0.86245279230800
N           -3.85418169728105        0.68556146666940        1.19689565458785
N           -3.78553050124972        0.55026497920627        2.49786155506445
C           -4.53663802463689        1.57953053330855        2.96642508995380
C           -4.74704421426265        1.86701536311698        4.45040541335633
F           -3.67150019677089        2.52826873965628        4.91141996145403
F           -5.85185166628896        2.62167296430053        4.58695449072466
F           -4.89947620860021        0.70169431867034        5.10304300216100
C           -5.05711550995156        2.35137744069080        1.94605274091262
C           -4.60710816759546        1.75007027960954        0.75496869056990
C           -4.66481615365694        1.83067663893684       -0.66667398631719
C           -5.32371533855164        2.78286670895539       -1.49808190060561
C           -6.06117184867671        3.86708978619723       -0.99716041135565
C           -6.66817945393815        4.74865184839824       -1.84805861535783
C           -6.56271549463640        4.58284045641184       -3.22810454261923
C           -5.85131431261193        3.53667302856636       -3.74664582486275
C           -5.21503225022578        2.61147230839108       -2.89835912058473
C           -4.47056560650889        1.51496285611152       -3.40606851727619
C           -3.86408140667783        0.63864594892040       -2.56377320324783
N           -3.96013209723897        0.80101670207140       -1.21630045246638
C           -1.12653549043125        0.99144296335900       -0.78373040666430
C            0.24916147907024        1.08398443358876       -0.76851552923986
H            2.95861844735748       -0.69976678265167        0.03878408493626
H            2.80937543660885        0.84656333162702        0.87608383639932
H            2.87656932232107        0.79557690599894       -0.88612959160456
H            0.92937239613548       -1.52176627810537        1.24230631985087
H           -1.53467126291469       -1.67000546040670        1.20812920395029
H           -2.83563371135254       -2.14190773939725       -1.81291778371934
H           -3.81867804384887       -4.40231172251028       -1.84812236765441
H           -5.51901632874073       -5.92405794322704       -1.10432960258129
H           -6.68270399736727       -5.42343589678673        0.11789508736318
H           -5.11841678658247       -6.07849793500188        0.60650972551409
H           -6.09699978140298       -3.45158498883327        1.61191863473742
H           -5.08719091261975       -1.19810389475935        1.63441678415021
H           -5.68345367071118        3.21823689784538        2.06149174541798
H           -6.14321723127296        3.99953483191494        0.06583424050883
H           -7.23165465911111        5.57734001993330       -1.45162272005916
H           -7.04542042462181        5.28466138079825       -3.88808172008105
H           -5.77096073580221        3.40975577416483       -4.81236697887590
H           -4.39123728639920        1.38711357645228       -4.47141844345966
H           -3.29189372732181       -0.18959166440130       -2.93904009965100
H           -1.71937027295574        1.69931306225436       -1.33472235684637
H            0.74347154010192        1.86927857749076       -1.31407795376359
