85
 energy: -17.166255827329 gnorm: 0.000668455411 xtb: 6.5.0 (97a52f5)
C            1.74506820534948       -1.91787667492297       -1.83990841162471
C            0.46270704469688       -1.16913451634778       -1.72901178128060
C           -0.72862921358345       -1.72385732067747       -2.16772415918232
C           -1.91717732534671       -1.03591787571375       -2.03893719622877
C           -1.95613881327936        0.22502019254157       -1.46189545009293
C           -3.28345672131469        0.95091194405364       -1.33921884251066
C           -3.34387031152620        2.33403597097131       -2.03542070525696
C           -2.91477055505296        3.57161422611227       -1.18706159961005
O           -3.43982080117172        4.75571269801373       -1.84199360138511
C           -1.39372690276055        3.74684641875721       -1.13850342643531
C           -0.70272665779570        3.84782207653973       -2.33005439951378
C            0.66039139019651        4.00761089955981       -2.31692010999238
C            1.28396966861924        4.07556886833497       -1.09751066064130
C            0.51382842421059        3.99602462525677        0.03702688348341
N           -0.79950881152469        3.84535275396447        0.04647842415697
C           -3.55483303038248        3.50682416695993        0.23438249101358
C           -3.50957976109131        2.15451207154214        1.02036884383700
O           -4.49319834504343        2.24868403605972        2.07612850957838
C           -2.17187717446156        1.89034569147424        1.72423138908615
C           -1.66816423300329        2.85512110341365        2.57507566450003
C           -0.50775800412108        2.61707348174844        3.26791710276235
C            0.09657844389264        1.39798120371333        3.10103339600243
C           -0.50273142843664        0.47808125839348        2.27549031925841
N           -1.62435473355525        0.68378272312363        1.60641237396235
C           -3.91725767876558        0.95113675402758        0.08780791439237
C           -5.42209206805907        0.82450754266980       -0.03372355601277
O           -6.11424519485693        1.81736311746796       -0.04288384860934
C           -6.02705981627625       -0.51325293661264       -0.17438652723147
C           -7.41393000546229       -0.62535699127098       -0.17755821070238
C           -8.02569363232228       -1.84336849891336       -0.33680973464415
C           -7.27138037115541       -3.00414246916910       -0.50345387255588
N           -7.90616747843882       -4.27031731379914       -0.69247466370323
C           -9.18848925878082       -4.35060653584440       -1.33662859436865
C          -10.15874081038870       -5.23681819671613       -0.87583959063528
C          -11.38552886220132       -5.31929436771477       -1.49525650635787
C          -11.66496006864953       -4.52095272979292       -2.58725890474160
C          -10.71163076378860       -3.63970359083378       -3.05882627819282
C           -9.48432131087925       -3.55498324501750       -2.44078404279002
C           -7.26224330277308       -5.48014375709121       -0.26062527623302
C           -7.32109532528466       -6.63145086999377       -1.04171743347542
C           -6.70877982039467       -7.79312564129167       -0.62827672623707
C           -6.02920622953026       -7.82741418489120        0.57367504071630
C           -5.96495205908875       -6.69482005970600        1.36168479035489
C           -6.57578836186563       -5.53162014045308        0.94994752793209
C           -5.88116252545565       -2.89306863453321       -0.49663591382402
C           -5.27054449531816       -1.67460256332583       -0.33668167320614
C           -0.76518632175726        0.76921178424017       -1.01992998471649
C            0.42471234436790        0.08604650581623       -1.14553767405707
H            1.71067778826472       -2.64101534710798       -2.65565008387603
H            1.95716134911853       -2.46029915289025       -0.91775421163529
H            2.57858967584703       -1.24122948947955       -2.03242362279565
H           -0.71890451447055       -2.70451811489356       -2.61239903736454
H           -2.82995333027157       -1.48216979524739       -2.39481845095044
H           -3.98072531031165        0.32229690360973       -1.92533775540320
H           -4.36289603454078        2.51609664488483       -2.39016280911673
H           -2.72806467213302        2.29950093057515       -2.93762480679204
H           -4.41444447854333        4.70279238266593       -1.89477828949467
H           -1.23843458281794        3.82103998736653       -3.26285617648595
H            1.22113824570153        4.08070815409283       -3.23438420312814
H            2.35245044171982        4.19794548599592       -1.03111044638312
H            0.99311287016601        4.05455013363613        1.00247688070689
H           -4.60360905426839        3.79461185518202        0.14187803852559
H           -3.09768212293497        4.28832569805942        0.84231174593364
H           -5.37446667308954        2.28933833651338        1.65651598586843
H           -2.19435311137943        3.78487829026994        2.70133584192653
H           -0.08640837154235        3.36351134922719        3.92129249065422
H            1.01421145845845        1.16287494432549        3.61478353802046
H           -0.04347086970164       -0.49081826886115        2.14877524502732
H           -3.55051273191998        0.06031320856261        0.61217188228843
H           -8.00161012923250        0.26844982096498       -0.05759257560018
H           -9.09889564683803       -1.91707587193224       -0.32757489410923
H           -9.93615392153099       -5.85203509198246       -0.02166675065661
H          -12.12894590229697       -6.00720734664900       -1.12716230607743
H          -12.62545333729673       -4.58637048282436       -3.07162508496287
H          -10.92819140822077       -3.01863246113462       -3.91250084417876
H           -8.73362893635206       -2.87852669809588       -2.81043963831053
H           -7.84773837484555       -6.59632578085159       -1.97928211657155
H           -6.75952510410996       -8.67653241980762       -1.24341675248617
H           -5.55057245728280       -8.73732879657022        0.89679854712792
H           -5.43767875748909       -6.72222814644572        2.30109645032622
H           -6.53945937888118       -4.64949957060913        1.56498272864901
H           -5.28936141496563       -3.77989190504458       -0.64061517320170
H           -4.19743662912222       -1.61646134054219       -0.35644094212566
H           -0.77509072563419        1.72657485929840       -0.53523258038838
H            1.33814921632746        0.52437409560835       -0.78127113789386
