64
 energy: -13.752642527278 gnorm: 0.000658560422 xtb: 6.5.0 (97a52f5)
C            1.11839176428795        0.09873017466624        0.92389706410806
C            2.57209708589776        0.11370399627240        0.60347127254435
C            3.20520273006279       -1.05916167563491        0.13654189930662
C            4.53310169324035       -1.08080728386282       -0.19582951214902
C            5.27060737767193        0.10090051228345       -0.06976000210942
N            6.57895314841605        0.42963555181685       -0.33201227627453
C            6.70792337302884        1.78321951082393       -0.02946137411732
C            7.93857385407203        2.55011739799348       -0.19063855609644
C            7.96251109417343        3.90833992289830        0.11742911742252
C            9.10438123320944        4.65249614267909       -0.05639414872819
C           10.27363452083035        4.06840561252306       -0.54691577718106
C           11.49444394617506        4.86956234396125       -0.76965317773072
C           11.41965340722348        6.19370853114108       -1.20029146798655
C           12.55902681914854        6.92119035568001       -1.44410261538704
C           13.82676928362485        6.36532949523138       -1.26831912123134
C           15.04344203504503        7.13543553700841       -1.58117203116728
C           15.08360715490424        8.52309606986010       -1.42459328337733
C           16.20569364552907        9.24303967020680       -1.75859750405539
C           17.33766906380568        8.60678565619018       -2.26431490945543
C           18.53170998732153        9.35074785330092       -2.65014837911407
N           19.63048980006574        8.77559020309157       -3.12274128785160
C           20.50361279035251        9.78683892485046       -3.38818304871404
C           21.80633611078441        9.75423533802202       -3.91054271370052
C           22.48798926405937       10.93237581571510       -4.11268795097021
C           23.87716614834195       10.91174110794862       -4.64752564335741
C           21.87942119212438       12.16167192267185       -3.77721817317149
C           20.61141373475778       12.22552044909711       -3.26441966448706
C           19.91124524713094       11.03075323285600       -3.06676119471424
N           18.65451541468789       10.73714045227625       -2.59262080537078
C           17.30574423253462        7.22231330175941       -2.40957477722848
C           16.18480312838205        6.50360581658925       -2.07459477016445
C           13.91103624557611        5.03755745881434       -0.81986238519938
F           15.11629633884464        4.45842030697708       -0.59062406052689
C           12.75961747331329        4.31675378936423       -0.58280004121557
C           10.24919041410835        2.70448446167364       -0.84406904197808
C            9.10696348578767        1.96124603094490       -0.66975813648759
N            5.56731265366391        2.30429017209026        0.40551686819693
C            4.65733358121816        1.29011968454076        0.38999189395919
C            3.29292155492465        1.28000092345762        0.72148620833114
H            0.78188833268495       -0.90495322813864        1.18554471670091
H            0.53102347967259        0.43850386007490        0.07028607054298
H            0.89601014740559        0.75218839708146        1.76810150799919
H            2.61814291926432       -1.95604372760265        0.03935528809487
H            5.01140659954006       -1.97501440931059       -0.55321248582302
H            7.28391924045251       -0.20262935487387       -0.70774485304634
H            7.06462598459691        4.36830822536194        0.49120356269916
H            9.10641481252386        5.69815524315270        0.19741434736638
H           10.45395741045473        6.63661038289717       -1.37063036534208
H           12.47660755506888        7.93007008023449       -1.80890852298060
H           14.22411137218374        9.03114198541195       -1.02355714025539
H           16.21500720244947       10.31056390828244       -1.63179730228703
H           22.25827909137485        8.80982073842202       -4.14961488892559
H           24.03251637600114       10.05635237943564       -5.30585865990016
H           24.60308686844568       10.84883890230966       -3.83629323598044
H           24.09099505130095       11.81335516216646       -5.22239464021205
H           22.43673869809495       13.06919077783549       -3.93325710078010
H           20.15041977727818       13.16411823751746       -3.01440665998153
H           17.95892884010173       11.41884479796201       -2.29346413093910
H           18.17731732780517        6.72375465737601       -2.79586939094114
H           16.17504312254573        5.43462841837755       -2.19617050728976
H           12.85492003506303        3.30682635771682       -0.23044959582485
H           11.13485915054276        2.23846214311150       -1.23940771580812
H            9.10715028229242        0.91426147812285       -0.91342464640671
H            2.82200829446690        2.18411981929482        1.05920985678497
