64
 energy: -9.477898469366 gnorm: 0.003190517313 xtb: 6.5.0 (97a52f5)
C            3.81928971634654        1.19519204509616       -3.26328673125002
C            4.95159048561696        1.40477557358034       -4.14134578466230
C            6.10054791359715        2.05241999734488       -3.76081630017812
C            6.50489829957213        2.65230029035883       -2.66759454743766
C            5.93639983032356        2.91528380550988       -1.43389140996193
N            6.57624190161871        3.55705646741576       -0.42592127835804
C            5.66709042426340        3.59974814054127        0.57468694306451
C            5.91447007544616        4.18878164861719        1.89938468466923
C            7.14306822782938        4.76177212428149        2.11878792576855
C            7.59797212292955        5.28477254378936        3.23491384282488
C            8.78694437095530        5.83435414366553        3.44332250236997
C            9.81995984660032        6.16023772717263        2.51142064225095
C           11.11489030812984        6.18714773657774        2.95823217338234
C           12.19518606070097        6.52288696875296        2.28791323845811
C           13.49974106890522        6.52184740384529        2.69020617106818
C           14.54500276660574        7.01730724269535        1.77734443308298
C           15.86881305396223        6.95018359522397        2.10917374131143
C           16.80181468178550        7.41191917962178        1.30659584400411
C           16.48415785433649        7.98297373440152        0.10869916261741
C           17.52447921799780        8.50182616126780       -0.78239734977044
N           17.26070699255767        9.11152156900023       -1.93498416905023
C           18.47835071281370        9.43543833157072       -2.44385716750428
C           18.85403917599274       10.09664533046048       -3.58883150003435
C           20.16075292505151       10.30182567535859       -3.84408801617329
C           20.57780961292007       11.00639673202974       -5.05155210908359
C           21.10644349734579        9.84361307584195       -2.94459904793594
C           20.80276252206475        9.21215949744498       -1.83791752001805
C           19.48101310188009        8.98406094202031       -1.54463302003838
N           18.85539726902257        8.40005849653252       -0.50276116727190
C           15.16392293129533        8.04862470907499       -0.22962571453083
C           14.23245502642808        7.58473030794759        0.57365201312727
C           13.86038267025495        6.08704066346163        3.92042929094649
C           13.00580982465937        5.59265492831001        4.80699690234352
C            9.52373489036487        6.46228112644231        1.25603966186886
C           12.66738181855930       -1.90259693626864       -3.84654894321339
N            4.98808190289855        4.12348776303653        2.81875198749695
C            4.52013385207940        3.02782635994057        0.24115069870760
C            4.65867093920018        2.59577164449794       -1.00085940133561
H            4.90958551383281        0.98486680535112       -5.09754524030331
H            2.91377002316921        1.00512746451088       -3.80324326041196
H            3.99129083058070        0.40618206738236       -2.55907976855604
H            3.01356923501922       -7.81851509701951        0.28027566058691
H            8.28588540547522       -6.78607717396990       -1.03152131696328
H           11.37270130201611        3.60117643589910        0.99618052359460
H            9.51461104116078        3.34228290518943        6.79045169231167
H           12.04015093524305        7.30825132990062        5.49330005966398
H           11.32484920853868        6.04989767421285       -5.07232354538442
H           15.42779646982754        7.46950117776700       -5.73112696914534
H           20.17874222345195        3.42042332873871       -0.63535583445328
H           23.86392558884961        5.87502208765947       -1.08460830271094
H           21.24972387471085       13.04110723201558       -0.45657224113959
H           22.00406431288788       18.37608637430658        2.80397498511228
H           21.25997578131913       10.42989549138646       -5.64353905713863
H           21.00347484586067       11.96587663473331       -4.83600779078670
H           28.47267007184601        9.01766234848897       -3.45548738960167
H           26.27784929366163        3.88000767002315       -5.41819510262525
H           14.75977178025609        3.53515787601004       -0.94368967316483
H           13.71622447328914       10.82797558659140       -4.08812674099402
H            7.91955976389563       10.26192695434567       -1.04193328830618
H           13.13923414176568        5.07792208806884        6.74724362899779
H           13.40372994606613        3.55398525292438        4.50852733184092
H           13.05164679541819       -1.34225959938459       -4.61232009348333
H            8.94492645426171       -0.51118833915822       -6.30064573918985
H            2.98921280263413        2.56663829837953        0.91093706948206
