27
 energy: -5.197021327331 gnorm: 0.000710234001 xtb: 6.5.0 (97a52f5)
C            0.99749534321297        0.02709924793321        0.30032790328914
C            2.48201116096821        0.05839585948028        0.19785773700155
C            3.18042761507086        1.27535555662489        0.36246050919936
C            4.54108951683434        1.33190079827634        0.29121799656977
C            5.25958175778116        0.14926749870470        0.05379937465323
C            6.64304482221756       -0.12571789767046       -0.08268579858979
C            7.77574180041920        0.83573598716716        0.05036280737213
C            7.42205994029004        2.20965293900157       -0.43560461431465
O            7.38583893785022        2.45809426797376       -1.62307949287197
N            7.10045667871300        3.17701104164095        0.49667296760717
N            7.14633786758301        4.50494943694317        0.09781911584197
C            6.73334012249157       -1.48014784990041       -0.30027430277587
O            5.50433043336069       -2.07863410044120       -0.32115991362788
C            4.58053988340400       -1.07781944506175       -0.10393914166521
C            3.17906107227087       -1.10322982767162       -0.02672794373583
H            0.57054984942198        1.02236557401457        0.17457240712854
H            0.68567600916677       -0.35214378108788        1.27387399623436
H            0.56711087265587       -0.61655865840729       -0.46740090434423
H            2.61771625122624        2.17406500241118        0.54649595316682
H            5.07637403624577        2.25645227040183        0.40235972379972
H            8.63368051246379        0.47172910351579       -0.52175127260908
H            8.09610747183397        0.87988739533173        1.09493997890835
H            7.40446030786705        3.06828622209022        1.46370043838301
H            6.61782904839512        4.66480487608423       -0.74496124624474
H            8.08064817811692        4.83295425471954       -0.09092860060371
H            7.66157229219599       -2.02061023020362       -0.43434145382182
H            2.66376821794165       -2.03817554187154       -0.14301622394968
