117
 energy: -20.917522583067 gnorm: 0.000377505961 xtb: 6.5.0 (97a52f5)
C            1.16750801569287        0.29417068499128        0.84096798788788
C            2.62403076875449        0.14965465962624        0.56889560304482
C            3.50748621973360        1.20579360292854        0.80787106952843
C            4.85359020182376        1.06725478242322        0.58106526177912
C            5.39551963045523       -0.12895640028901        0.08855401584379
C            4.51156309622955       -1.20469187258259       -0.06761661259428
C            3.14650986599645       -1.05215974278847        0.14979206798178
B            5.10388857619956       -2.58693814532917       -0.31120504762834
C            4.18991483053297       -3.85836140804617       -0.36575539991347
C            3.84665363071944       -4.57621822848631        0.78733326332648
C            4.35614580172477       -4.28079794532048        2.19502145134426
C            5.64769524584872       -5.04247780504988        2.50205252811701
C            4.50283386560781       -2.79831148362135        2.53164735515872
C            3.02528428232633       -5.68271211063074        0.64922352429451
C            2.52804301537779       -6.08297568847977       -0.57969416763827
C            1.62150696151203       -7.29383135321408       -0.69022007487071
C            0.23651331877230       -6.90866659511535       -1.21662664188470
C            2.25958203473581       -8.39429453729643       -1.54178166695188
C            2.88193195664593       -5.35359520308264       -1.70057403541785
C            3.71347700204595       -4.24987904261725       -1.62168538651836
C            4.03632466066783       -3.51636763571682       -2.91642065065450
C            3.26705090015993       -2.20078752248213       -3.04115010534666
C            5.53502730374205       -3.31111847075678       -3.14188392891858
C            6.61561056834529       -2.71621858337181       -0.22786875011085
C            7.21390004555772       -3.96501256525460       -0.24467525422964
C            8.58618997549023       -4.10500542755216       -0.12093833709204
C            9.22702644284976       -5.44831934039734       -0.11552901763798
C            9.35452947626886       -2.95727313221986       -0.02717399110579
C            8.77759816490794       -1.69980977007933       -0.08429247840528
C            7.38202099647412       -1.53720886317883       -0.16763613023002
N            6.78803000013927       -0.27002435921991       -0.18561033461383
C            7.57513663063624        0.88458692911635       -0.47256851844791
C            7.01182590474846        2.05417021529152       -1.00351430957841
C            7.76919006508305        3.17484525624705       -1.23406040494401
C            9.13953526110688        3.18754785648339       -0.95976413587382
C            9.96355959077977        4.39668242953904       -1.23427453866415
C            9.72151650088755        2.02766973261649       -0.50246727205944
C            8.96328660751339        0.88294310009664       -0.28269637475512
B            9.63914101527261       -0.45113638023958        0.00520001895335
C           11.19224862035187       -0.55882897710872        0.17464265386279
C           11.70571515163773       -0.42874709741991        1.46987376239102
C           10.84998795467643       -0.15071527394361        2.69884258890197
C           10.40174959414292        1.30973336405396        2.76631971857593
C            9.66499621164937       -1.10563787211965        2.85116100204310
C           13.07432298241378       -0.52595321482732        1.65250099811853
C           13.93708076902132       -0.76276039788422        0.59595913132653
C           15.43084780631669       -0.88144957904058        0.82961307473146
C           15.94664360602345       -2.27240195659172        0.45180650748291
C           16.20052122270108        0.22081742910589        0.09780016462005
C           13.40166546278173       -0.89393360854617       -0.67323208010097
C           12.04205545909744       -0.78927163177370       -0.91476448177171
C           11.59046834955282       -1.00100792262455       -2.35669338422524
C           11.36070755031376       -2.48198974640144       -2.66749126016124
C           10.39054194313730       -0.16035389304636       -2.78815101824017
H            0.83954994674949        1.32473372005367        0.69640768242594
H            0.93536021506955        0.00772524591395        1.86791352655627
H            0.57838477634885       -0.33787913289048        0.17451346598505
H            3.11667102923555        2.13602560998408        1.18432243427747
H            5.51614871841035        1.87764867258370        0.82902919702808
H            2.49686802122642       -1.89861892578062        0.01713974331143
H            3.57802694871854       -4.67745896082548        2.87349004492610
H            6.48445345438050       -4.62742563642084        1.94395537776594
H            5.56208208025474       -6.09745266933392        2.23717786835761
H            5.90819981143595       -4.98015272655529        3.56006383500788
H            5.29661665433096       -2.34451645472663        1.94110045059158
H            4.76391120645953       -2.65074660109842        3.58104885512648
H            3.57972237486261       -2.25122803850738        2.33899451677545
H            2.76715343727917       -6.25424978931872        1.52350743801093
H            1.49316380654085       -7.69207628595088        0.33180913624104
H            0.30232252888829       -6.52280868961295       -2.23411633039614
H           -0.21989164616142       -6.13184275688904       -0.60097696318778
H           -0.43839171068590       -7.76603250714345       -1.23470337086713
H            2.39632109816730       -8.05821388580262       -2.56986454663237
H            1.63732406135483       -9.29033256627632       -1.57064008668338
H            3.24068083388097       -8.67620624607792       -1.15596135308498
H            2.49973333974383       -5.65576234333131       -2.65938947718695
H            3.68247560104116       -4.17654280768420       -3.72948589916718
H            3.63145778444992       -1.47083763255927       -2.32088643625788
H            2.20082412816286       -2.34348656759508       -2.85859693444279
H            3.38467721647800       -1.75982761395083       -4.03250466927383
H            5.92881036793430       -2.56455838130654       -2.45500854350156
H            5.74426878487585       -2.95451098395216       -4.15191080257635
H            6.09262183360232       -4.23613751354382       -2.98803530795401
H            6.59712217234804       -4.83960576854751       -0.34546549314293
H            8.49373449329164       -6.23706877554906        0.05983778520832
H            9.98260509646389       -5.51690096732281        0.66876452751479
H            9.71374144021477       -5.64910162841173       -1.07120117975754
H           10.41995538492304       -3.04090007031506        0.08849955993491
H            5.97111269989593        2.05496491371538       -1.27610352760155
H            7.31173887040233        4.06104148320120       -1.64049581768982
H            9.37456370578089        5.30861345650101       -1.12477971049689
H           10.36060610793049        4.37196689663185       -2.25032531506943
H           10.80726733056760        4.46213256584889       -0.54538711550765
H           10.78387536080124        1.99166407725394       -0.34029638788782
H           11.51031745868600       -0.32781418451149        3.56760113663267
H            9.68378147602620        1.52977514888315        1.97862055179545
H           11.24482730077607        1.99180075550581        2.64570974363590
H            9.91570294179100        1.53674614500524        3.71672503096147
H            8.89984494352537       -0.89084802957653        2.10775949112607
H            9.19188055619427       -1.00645215425933        3.82966109608726
H            9.97108050707645       -2.14546669042077        2.72795758423553
H           13.48222954851184       -0.41622085548854        2.64189597991970
H           15.59717912705724       -0.74476689480966        1.91278436265201
H           15.82352593689405       -2.45427112596606       -0.61594458878097
H           15.40175903560695       -3.05514663988361        0.98200236214047
H           17.00742953261220       -2.38338338365580        0.68270870338683
H           16.08418016287804        0.12272900284598       -0.98181077793013
H           17.26861000674742        0.17765769841994        0.31747336069602
H           15.83754719319090        1.21123780226428        0.37769821226067
H           14.06424320215539       -1.08974356325746       -1.49769025532934
H           12.44263876409938       -0.66842353224652       -2.97827378581552
H           10.46205243362822       -2.84680021414101       -2.17395390174746
H           12.19788074037569       -3.09550258539202       -2.33091098383373
H           11.22735695968830       -2.65112625497060       -3.73745692562418
H            9.49283703964445       -0.46446931808431       -2.25274903860309
H           10.18159485416147       -0.27942656639534       -3.85271678418536
H           10.55671979766400        0.90039246680699       -2.59942870918466
