24
 energy: -5.143215292014 gnorm: 0.000981224994 xtb: 6.5.0 (97a52f5)
C            0.94473995751901        0.01259079049815       -0.01058248653877
C            2.43338856247013        0.00151581459851       -0.01580189283958
C            3.13997805801186       -1.20094666374576       -0.01831666571800
C            4.52126352568250       -1.22942991094865       -0.02352757183923
C            5.21246508343014       -0.03008887362689       -0.02625641428916
C            4.51399222472939        1.18014422166105       -0.02376547238840
C            3.13313329074314        1.20072547524428       -0.01861270405926
C            5.48623466670856        2.29346045619765       -0.02754882510041
O            5.24516875566884        3.48052801320221       -0.02664006236334
C            6.81193460898295        1.64895581945369       -0.03251026179338
C            8.08956943045880        2.16035673604232       -0.03708551202608
C            9.13298837832058        1.26195393658459       -0.04074335885816
N            9.00800519474136       -0.06264802342309       -0.04020892425036
C            7.77078578006443       -0.53875793991986       -0.03574374058785
C            6.64885987962861        0.26810823834590       -0.03177535463661
H            0.53843461843462       -0.99897956258582       -0.00677587713180
H            0.55875642704760        0.52374242153065       -0.89296268979531
H            0.56490019489988        0.52788830524459        0.87204921178056
H            2.59075388154063       -2.12630238921110       -0.01611171271810
H            5.06001428538528       -2.16025289688610       -0.02546144650599
H            2.61215222137159        2.14062517780974       -0.01685801068998
H            8.24917198442832        3.22433313468927       -0.03765837365199
H           10.14422846949076        1.64005586475966       -0.04436113841409
H            7.64852052024100       -1.60908814551499       -0.03523071558472
