102
 energy: -19.919453241079 gnorm: 0.000688154438 xtb: 6.5.0 (97a52f5)
C            0.92443416781080        0.10748492094774       -0.11058572499171
C            2.41018139527850        0.03847009387796       -0.03504721726074
C            3.18384690924667        1.18697956363430       -0.02824994666430
C            4.55378566382786        1.10000857267240        0.03919791051681
C            5.20244511874994       -0.13154804306840        0.10729372905454
C            4.43529990667238       -1.30171087887262        0.07379193446698
C            3.05444821777438       -1.18868618167138        0.00608706821784
C            5.07742253275795       -2.69532327641111        0.08277465879684
C            4.69206117065344       -3.41780894941116       -1.22407402063476
C            4.53908683772825       -3.47670085562332        1.29889630415040
C            6.60800074585942       -2.64203470460118        0.17749319006421
C            7.33026179632026       -3.82593244211712        0.20705720576252
C            8.71301378599593       -3.84993305838044        0.31836879414964
C            9.46367525758907       -5.13614621174222        0.33019072144260
C            9.38597867465083       -2.64338735721311        0.40313058598552
C            8.69214135831827       -1.45752937890669        0.37333533323795
C            7.30448716863780       -1.43015177111331        0.24808578299013
N            6.62227315481265       -0.18184400618142        0.19812299547855
C            7.38291022074336        1.04683062579772        0.20694339281222
C            7.28255114446575        1.94254994861739        1.26362223674833
C            8.00332660066760        3.11338074676512        1.23404006944539
C            8.83776634762947        3.40143840166604        0.17633033455919
C            8.98652487323666        2.52312729594242       -0.88782384939765
C            8.23528035253438        1.35621799994143       -0.84946167442542
C            9.93312068087406        2.72477046057545       -2.08649247163648
C            9.08007969685518        2.68557171045535       -3.37242589077101
C           10.93865136945199        1.55389408741057       -2.08371827880555
C           10.74172855998184        4.03587702103812       -2.10616935149485
C           11.60159012263292        4.24593771904807       -3.17570059785215
C           12.35842923141253        5.40620747207047       -3.31277243135255
N           13.24686331735866        5.57089954278642       -4.44073623404276
C           12.70550734659628        5.67568052983326       -5.75259551970424
C           11.32386009847220        5.68237183651981       -5.93356614351151
C           10.76544556979498        5.76259616528823       -7.18676620853406
C           11.57392280880327        5.84191732474695       -8.30839299441151
C           10.98972628799562        5.94262949440830       -9.67450839362120
C           12.94888058146272        5.86005397234044       -8.12860979924289
C           13.53570697901562        5.78027646425162       -6.87434440103598
C           15.06470400546559        5.82831648446661       -6.75222436212397
C           15.65860813343481        4.65759919546187       -7.56234454930444
C           15.55803584505929        7.17261723612148       -7.32424038316409
C           15.54764864451502        5.70907168906911       -5.30048028708819
C           16.90855486660915        5.71693344371401       -5.03176537163144
C           17.41261545511361        5.58467857015699       -3.74578557102568
C           18.87891426229073        5.59609740451384       -3.48505401870855
C           16.51683096200437        5.43282792850661       -2.70170378971197
C           15.16398369547099        5.42553862649164       -2.94291541264192
C           14.65465191580632        5.57371934556462       -4.23142157433441
C           12.24714331252685        6.39164466577721       -2.34052549407859
C           11.41358904319885        6.19427469912759       -1.26464968606599
C           10.67674376061627        5.03616280741482       -1.14638378835485
S            9.67152203000679        4.96964884064996        0.32370283452899
O            8.63081723848716        6.07370268926013        0.24465835426233
O           10.59321904727719        4.91221441680347        1.53018151420452
H            0.56599087534552        1.12825207472841        0.02721161854851
H            0.46690082733073       -0.51178451863516        0.66203633758159
H            0.56878876560941       -0.24478446151104       -1.07954828462801
H            2.70306489675232        2.14923174556909       -0.07554022014946
H            5.14157982575029        1.99977820025278        0.03463875511885
H            2.45191991186146       -2.07856623335588       -0.02038397660312
H            3.61136072231786       -3.49782679592327       -1.32936954978878
H            5.10172879976444       -4.42595363754842       -1.25684731467297
H            5.07389753625934       -2.87155856024645       -2.08578653651125
H            3.45465255034703       -3.56642191688809        1.26627733647823
H            4.80674708821422       -2.96858493777542        2.22452918772528
H            4.95034912160378       -4.48396112394066        1.33786450603150
H            6.80775222311367       -4.76309382901447        0.14316819378389
H            8.79017745798237       -5.98946791125707        0.41783165259706
H           10.15826553654541       -5.17366684858240        1.17027885912312
H           10.03873053031881       -5.25689479179830       -0.58870486641157
H           10.45922151786542       -2.64386598908910        0.49087901973302
H            9.22731542228653       -0.52859781026021        0.45133325647097
H            6.63775863972106        1.70956339379463        2.09290375742304
H            7.92277725250567        3.82174640300314        2.04355014648903
H            8.30354400838850        0.64734062971682       -1.65374140404713
H            8.52454651882601        1.75357165879617       -3.45832478327877
H            9.69642899951453        2.77808047010094       -4.26487690425303
H            8.36234358155668        3.50506642337434       -3.37540495027454
H           10.43148437356950        0.59137865984310       -2.12078961818713
H           11.54464914035650        1.57814594205591       -1.17872177424382
H           11.61133964095629        1.60006615386815       -2.93817737169865
H           11.70320051814934        3.49647747227725       -3.93864025675559
H           10.68499163014400        5.62724243873364       -5.07081044756924
H            9.69521064355198        5.76432996402221       -7.30480678858198
H            9.93663068001491        5.65906578507661       -9.67755499873567
H           11.51173143042163        5.28542295308032      -10.37117216107801
H           11.06417029656258        6.96268779996213      -10.05320493592182
H           13.57328221373519        5.94343831984740       -8.99970216595034
H           15.36551382944991        4.70883604224044       -8.60952713762270
H           15.31173107865853        3.70560722768336       -7.16229242882691
H           16.74667195428090        4.66049692338753       -7.52594802871857
H           15.25902758106692        7.29490229145507       -8.36396643489201
H           16.64333114248753        7.24796262405927       -7.28240573697346
H           15.14108339094323        8.00248388999260       -6.75485812082198
H           17.60465554985090        5.82613356058168       -5.84345038433068
H           19.44645350543800        5.73978500498644       -4.40515511061140
H           19.20062148637788        4.65457789629983       -3.03821663155738
H           19.14484589823445        6.40236804602811       -2.80032627050047
H           16.89153542590398        5.32117164446048       -1.69836295092378
H           14.48040637862401        5.29747889415633       -2.12342436165490
H           12.82053305562674        7.29674546105054       -2.43943870789540
H           11.32823827524028        6.94808047288882       -0.49779052568547
