100
 energy: -19.798005822126 gnorm: 0.000882320090 xtb: 6.5.0 (97a52f5)
C            1.00447487550419       -0.44047370870338       -0.60997282495593
C            2.48407040199816       -0.36221650563708       -0.46206689201283
C            3.14999911180876        0.84288907807742       -0.60943651942700
C            4.51781637317255        0.89999968730897       -0.49081850189229
C            5.27550166573490       -0.23816458393657       -0.21399922699364
C            4.61664426525337       -1.46990332738485       -0.10698496930614
C            3.23733548213097       -1.50261642593612       -0.22910488597303
C            5.38350849724129       -2.79084058408652        0.04285149456607
C            5.32744531700791       -3.56113273533175       -1.28911545180234
C            5.50485495171416       -4.93671242029585       -1.34255999935379
C            5.51516644931577       -5.60749856516321       -2.54858655079250
C            5.36337578175109       -4.91038853794926       -3.72851710531778
C            5.20925677845868       -3.54059416534306       -3.69734874412585
C            5.20002820279234       -2.87509738904647       -2.48894063255541
C            4.72836548661815       -3.56540663779378        1.20100714952341
C            5.09014006971989       -3.28030377859772        2.50981790393510
C            4.47997677781132       -3.91423389141578        3.57243391165162
C            3.48010345632473       -4.83587408104023        3.34339611195017
C            3.08910423766314       -5.11348825490654        2.05051771523084
C            3.70353831375520       -4.47790609619225        0.99094314924768
C            6.86629588250708       -2.56094696073736        0.35913152807724
C            7.65320618491544       -3.63791546251151        0.73198460202672
C            9.00203747908096       -3.50610757398737        1.02550080049966
C            9.81207736720983       -4.68227525513030        1.44747297573553
C            9.56681077598835       -2.24352140620797        0.95844831386351
C            8.80544716162728       -1.16042346706284        0.59000015036201
C            7.45381886606350       -1.29298773829064        0.27229765682630
N            6.69074071997879       -0.14164164037392       -0.07812975009558
C            7.34712963281415        1.13056918711334       -0.21321478690583
C            8.34962775846030        1.32266721912337       -1.17160548558825
C            8.99208081399877        2.53062994231938       -1.31598992109884
C           10.07189720246355        2.67719109470395       -2.37216793406925
C            9.64911383970161        3.62557496445119       -3.49465625028338
C           11.41573243907525        3.08918399375815       -1.76973923144710
C            8.61515021608654        3.59265475072806       -0.48290673981007
B            9.24247320723394        5.01824632080729       -0.59860729204434
C           10.33431166174247        5.44473754958512        0.39677258409131
C           10.77778940588284        4.50118592586220        1.31936784896081
C           11.73635260066134        4.82470298221082        2.24518269332069
C           12.27438790775962        6.10416140500834        2.26238378388255
C           11.84822600369249        7.04097856093371        1.34898015268122
C           10.87613332259353        6.72809993796992        0.40286272594279
S           10.42402094822307        7.99523562769101       -0.72869467200541
C            8.95121331164799        7.40897096911507       -1.49016422013643
C            8.21334878080480        8.32544792229997       -2.23420948979690
C            7.05409449870905        7.94919095588072       -2.87304746167136
C            6.60768572688489        6.63808819096053       -2.78307290132035
C            7.32352774014319        5.72350655849234       -2.05379487471524
C            8.49572522250056        6.09572849749348       -1.40135802279349
C            7.62017400149301        3.42840704644060        0.49180882704140
C            7.21527815171745        4.58208788800290        1.38693657178223
C            5.75233782450252        4.97314924469884        1.16791307514703
C            7.49900231080167        4.27850737664832        2.85946746494216
C            7.01003006279883        2.20511382645474        0.61752959956698
H            0.52337303077713        0.46255076665971       -0.23130905041231
H            0.59716498737953       -1.28857368467405       -0.05749936469816
H            0.72577762569370       -0.55655276460745       -1.65831346571172
H            2.58500524788724        1.73516721391149       -0.82033627151434
H            5.01784497341052        1.84118774598283       -0.62877131210008
H            2.72952613067125       -2.44651075980029       -0.15661650597101
H            5.63093784709306       -5.48904789263245       -0.42778062889250
H            5.64468533302224       -6.67753112609621       -2.56783278315891
H            5.37153836509763       -5.43323991991559       -4.67130120582140
H            5.10162642642648       -2.98881535938047       -4.61715182286166
H            5.10142131719140       -1.80391227519458       -2.47010257131236
H            5.85762873130802       -2.54735008922416        2.69026864536324
H            4.78230186889792       -3.68557347856037        4.58155207768197
H            3.00115013696121       -5.33225823507237        4.17190095446747
H            2.29978455350253       -5.82456848434106        1.86715907803691
H            3.37896818851990       -4.68607023268982       -0.01391740282216
H            7.20264810580990       -4.61010535341107        0.81282429700280
H            9.36080516819804       -5.61577199157437        1.10790115758472
H            9.89527981434526       -4.72553739871982        2.53459889613600
H           10.82060073631617       -4.63260253987494        1.03371619810774
H           10.60822576536359       -2.11834090640268        1.20240277210270
H            9.25498439480871       -0.18430948233778        0.55933369492446
H            8.60885318420781        0.49903872003529       -1.81201552010235
H           10.20626220565622        1.67574516803751       -2.81913290227295
H            9.55325250279457        4.64383580249081       -3.12089499279619
H            8.68662092717329        3.33566460470410       -3.91892796273856
H           10.38329484188521        3.64496650080697       -4.30163812546721
H           11.36554676182585        4.10413448038863       -1.37858684862260
H           12.21305571828978        3.06897620221441       -2.51413328765591
H           11.70182343720909        2.43077372450907       -0.94837307479288
H           10.35716205489716        3.51118139820304        1.29745006416801
H           12.07088134320754        4.08846600787983        2.95781860752123
H           13.02678090744847        6.36229082943906        2.98973166394071
H           12.26527662528891        8.03473853768873        1.35388320761248
H            8.56692345843995        9.34121432796863       -2.30285852010267
H            6.49356076112639        8.67080495011076       -3.44474173405087
H            5.70100712581227        6.34037494769434       -3.28404432207905
H            6.98618353834663        4.70459699077179       -1.98093857800824
H            7.83874063865122        5.44483279538170        1.09764567700099
H            5.08682334279851        4.15971855085388        1.45686855197824
H            5.55444351876996        5.20096249987215        0.11985910927645
H            5.47844862631084        5.84778541380491        1.75985506696621
H            6.89266299486125        3.44157283425414        3.20527488122159
H            7.26978529540666        5.13461294495058        3.49576913300156
H            8.54457044509725        4.01206091128631        3.01760785761986
H            6.25920547035471        2.05694159346134        1.37211920966515
