52
 energy: -10.496305895017 gnorm: 0.000359595425 xtb: 6.5.0 (97a52f5)
C            1.26763174957647       -0.70759043581331       -0.29432409436116
C            2.78329251902731       -0.67936531409103       -0.06069481911242
C            3.28587186712914       -2.08888276892438        0.26739666999647
C            3.49076393940736       -0.14768887110608       -1.31073363610649
N            3.08356743184443        0.21126812058340        1.08590184000969
C            4.37065468419261        0.39017696332321        1.56064867242329
O            5.34838052762852       -0.03914693252800        0.96725983961145
C            4.53407451955617        1.09959372052400        2.85952670677039
C            3.79198541455584        0.65327101409545        3.93147411919717
C            4.07567568636199        1.06552518794615        5.23285820574122
C            5.15542254424417        1.85883491703286        5.47799190198473
Br           5.57883450078174        2.30578555256802        7.26105675728934
C            5.95402311870751        2.33004285943107        4.41817809057173
C            7.16755885556594        3.01335940040178        4.66928928394210
C            7.98200756770384        3.38920715388225        3.65328956588087
C            7.59442154130143        3.23055932331367        2.29881161011581
C            8.48286806194250        3.60620441101040        1.20732543932052
C            9.83951510993707        3.88790533001877        1.42525969066720
C           10.68028501915324        4.18965177092072        0.38906281729110
C           10.20720078406300        4.21591171970819       -0.91616753489641
F           11.04336059316275        4.50944204660427       -1.94355763888293
C            8.88302239275543        3.94084657436125       -1.15389856627365
C            7.99472957590135        3.63544216554838       -0.11594913290660
C            6.57799619932850        3.40681140317345       -0.36244803474664
C            5.99637185706882        3.67227941654442       -1.60855721208576
C            4.63916528843455        3.59703688623167       -1.80582220487386
F            4.10773572263131        3.83627335714236       -3.03092386587194
C            3.81722682636736        3.27253894062267       -0.73493941851086
C            4.35883496369643        2.98136808983037        0.48555067896851
C            5.74510888131697        2.98919352565615        0.69730749076574
C            6.31612461349101        2.71688958805742        2.01332373290887
C            5.57481764325318        2.06154718089195        3.07431615914698
H            1.01397894535019       -1.34663997449949       -1.13900035832937
H            0.89180886142065        0.29320752469632       -0.50112334404985
H            0.74820790383452       -1.08684443422627        0.58445775768015
H            3.08727706948966       -2.78011831805027       -0.55052827008624
H            2.80011965510738       -2.46925836957239        1.16448245440183
H            4.35940439911193       -2.07224740844683        0.45012101350735
H            3.33645154940370       -0.80821912199499       -2.16276867769785
H            4.56128477529257       -0.06246530359728       -1.13015206840683
H            3.11614448034987        0.83945483224451       -1.57382117053287
H            2.27724279451349        0.49480519928494        1.64169910963251
H            3.01932110235265       -0.07682425442600        3.76358638928561
H            3.48393428466029        0.71124509706575        6.06154551509532
H            7.45975987904195        3.18039340901213        5.69088562082507
H            8.91280703266058        3.87406458114206        3.88466117540800
H           10.24101185425410        3.83943299035853        2.42086540754697
H           11.72074544326846        4.40023866105565        0.56329163893604
H            8.55075362330189        3.95603560280978       -2.17359534766255
H            6.59904847792288        3.97989124307915       -2.44070535696106
H            2.75224521557903        3.26032083321193       -0.88551491142260
H            3.70679265298924        2.76283491386152        1.31214030882430
