109
 energy: -21.371552423680 gnorm: 0.000554269210 xtb: 6.5.0 (97a52f5)
C            0.40450063714973       -0.10205828748247        0.47828937156739
C            1.88777314061149       -0.15810373239760        0.35985476884089
C            2.63397766816067        0.99423433261524        0.17410480604517
C            4.00060246205123        0.92524403610039        0.04384502667789
C            4.67531352428219       -0.29315326259527        0.09828362178161
C            3.92808324804335       -1.46851916198125        0.24612306833816
C            2.55248407961133       -1.37458632882474        0.37539894168265
C            4.58528546929507       -2.85238989078129        0.14730373768216
C            4.37027106406250       -3.41921810863348       -1.26790052908504
C            4.56333189392127       -4.76683814262583       -1.53696803112975
C            4.42059696008939       -5.26579644856382       -2.81560712765006
C            4.09398674913993       -4.42052013730689       -3.85479746021903
C            3.91781231719749       -3.07503637889834       -3.61106236124356
C            4.06218193114387       -2.58150825866773       -2.33102299571657
C            3.94901497276158       -3.74086644825359        1.23085296843588
C            4.37115072841011       -3.62818868963254        2.54757596309188
C            3.77652859824032       -4.36464213250596        3.55129826649527
C            2.73389788289496       -5.21731909021967        3.25575249720758
C            2.28485555558554       -5.32404456587737        1.95625356947331
C            2.88381215910971       -4.58693866521040        0.95534891698932
C            6.10029761012410       -2.76942898095030        0.36921570222338
C            6.81938175722545       -3.91620421658872        0.66221509714101
C            8.19713704302801       -3.90583136096369        0.82191335812596
C            8.93826687889683       -5.15268905826498        1.15939252896759
C            8.86422353391473       -2.69874439229454        0.69359409667104
C            8.17093331288880       -1.54825820800241        0.40295118399322
C            6.78763574482630       -1.55815688401942        0.23187486463494
N            6.09426847278693       -0.33903398243094       -0.02167769351229
C            6.85243796485708        0.85709374018683       -0.28584497627468
C            6.86673585684581        1.93164890085016        0.63360193920014
C            7.62587714775958        3.03824551509303        0.40198022831914
C            8.42337971031534        3.13353389582325       -0.74629587000840
C            8.40287002536647        2.08238721379889       -1.66179403336616
C            7.63238648172605        0.95810677474499       -1.43048850578073
S            9.29093219678759        2.12299088939949       -3.06481351024623
C           10.17378880943374        3.52357255221237       -3.20634682794829
C           10.97155192867166        3.66985301485315       -4.33683795649305
C           11.73608591470954        4.79696202395081       -4.49193896966691
C           11.71797026842391        5.79269167835123       -3.51353393565557
C           10.93032798697562        5.65133788863304       -2.40232290846681
C           10.13224770846872        4.51795280993998       -2.23481623038831
B            9.26772124789434        4.36793235203030       -0.98417541018433
C            9.27742282080157        5.50201477974221        0.10028908467706
C            8.39554658030232        6.57999289714463       -0.02470481508739
C            7.43444213032745        6.77802868759489       -1.19105275057216
C            8.12166483654523        7.43213766932193       -2.39080402860245
C            6.68166525854038        5.51474157356967       -1.60813336869554
C            8.41852604247630        7.56488758719642        0.94841445824364
C            9.26918320188586        7.49848560350033        2.03842973041409
C            9.25909319275667        8.58629484865574        3.09496268911138
C            8.84225956406040        8.03422722798357        4.46083494458005
C           10.60742132260338        9.30772474467957        3.16780536999254
C           10.12317450259222        6.41523274741325        2.14036107263177
C           10.15391328279091        5.41213150425758        1.18629206518013
C           11.10735456895519        4.24932080295548        1.43726947049372
C           10.42388886138485        3.10820555880825        2.19317341528795
C           11.81951062048928        3.73182129198588        0.18802589339520
H            0.07707985785567        0.85430484254078        0.88840174161261
H            0.03369911677005       -0.88874682113652        1.13697769913571
H           -0.06683964706296       -0.22965453117318       -0.49715810096420
H            2.13190506887514        1.94585982885906        0.13000781325288
H            4.56239891818863        1.82764347004102       -0.11455759219866
H            1.97446372165156       -2.27486817263872        0.47421910701511
H            4.82073617483560       -5.43307446953799       -0.73239744431292
H            4.56700604104982       -6.31733902442463       -3.00229170879800
H            3.98228576050000       -4.80906118240558       -4.85413133781448
H            3.67169203335070       -2.40785159157068       -4.42117887108940
H            3.94337628475140       -1.52781846156888       -2.15071616226715
H            5.17264590487539       -2.94855720555917        2.78135481323901
H            4.12409413692420       -4.26951370796039        4.56721352972785
H            2.26641002766325       -5.79241251819976        4.03857272501561
H            1.46199530839781       -5.98002450217887        1.72273928556753
H            2.51315725220230       -4.65747334062693       -0.05247015982419
H            6.29423997716284       -4.84623931597298        0.78182397707339
H            8.35776748564327       -6.03993728583689        0.90245122126624
H            9.16082860131874       -5.19428205718198        2.22662376313824
H            9.88251373884500       -5.20596489690969        0.61532194328696
H            9.93222921083180       -2.67034201085938        0.82849826840836
H            8.69910630958887       -0.61552220092051        0.31638483394546
H            6.27997086904558        1.84998569282626        1.53172912955868
H            7.62761529138895        3.85309464547122        1.10458707424113
H            7.64029942227618        0.15742658174983       -2.14879558977061
H           10.97709963144023        2.88292895304459       -5.07337841648958
H           12.35614253189671        4.91320393568682       -5.36565595733686
H           12.32768029689958        6.67309514351804       -3.63411605381710
H           10.92005137485541        6.41260251620912       -1.64191175478365
H            6.67189871165852        7.49024850097783       -0.82572556333193
H            8.81629120845945        6.73953278250606       -2.86184780062660
H            8.68513147633568        8.31785655086914       -2.09391761196417
H            7.39999006311152        7.73005358704774       -3.15305428439054
H            7.35696883910450        4.80080477791952       -2.07637998048458
H            5.90036960198423        5.73641850973183       -2.33690104071463
H            6.21330417162719        5.02756233129420       -0.75232646664704
H            7.75708264074623        8.40822229252039        0.85661118308708
H            8.49941227127027        9.32572951825494        2.78599287363308
H            9.56678260466983        7.30403038241153        4.82183108414928
H            7.87336265174322        7.53514710725593        4.40776674610688
H            8.77442816995524        8.82569531186538        5.20867629839808
H           11.39623068288936        8.62380911516025        3.48108612440110
H           10.58344216403883       10.13038015913429        3.88404472156075
H           10.89269961507325        9.71410293758992        2.19622314145341
H           10.77946226929246        6.34919548327883        2.98973723382752
H           11.89395493941375        4.65372844572349        2.10060464024352
H            9.69885928590431        2.60391497489487        1.55741970922687
H            9.89505918871308        3.47354612088709        3.07463474858375
H           11.14318855626771        2.35483874394781        2.51810803738721
H           11.11885465657429        3.22322871820214       -0.47189915607179
H           12.59766146113317        3.00994477484135        0.44098074233826
H           12.28456863800843        4.54377623102911       -0.37173557783204
