87
 energy: -18.771038753702 gnorm: 0.000624370858 xtb: 6.5.0 (97a52f5)
C            0.91355293426202       -0.32318631655166        0.58456639781105
C            2.31771068197165       -0.15477986368022        0.11919038661158
C            2.88154513277100        1.10467435759380       -0.01163184117863
C            4.18941935572579        1.24593798612393       -0.41303204657620
C            4.98212179031732        0.13707843438256       -0.69807534357974
C            4.42763941737965       -1.13897792231505       -0.55419927500207
C            3.11098967531079       -1.26049234569927       -0.14586619384135
C            5.26172620260929       -2.39875802107898       -0.77448869375037
C            4.48172352573025       -3.42260364882730       -1.61017343080001
C            4.01926146160497       -3.33804202401023       -2.90678435432657
C            3.34210487548603       -4.41627097475575       -3.44645427559202
C            3.13047904991272       -5.56444388984239       -2.69929675827698
C            3.59098513935662       -5.65620922569963       -1.40091382242681
C            4.27091675516046       -4.57738100343103       -0.85417846485546
C            4.86664491163204       -4.40041940160073        0.47852116826858
C            4.90976494867557       -5.25706033243600        1.56927836577628
C            5.54014764846689       -4.83534502683020        2.72321084697531
C            6.12044907151211       -3.57843385610899        2.79492598891710
C            6.08018285490160       -2.72056519969492        1.71123409727460
C            5.45284493622380       -3.13600368673438        0.55555125141137
C            6.62049946823395       -2.11638551568822       -1.41010643810637
C            7.40277606122145       -3.17406856362477       -1.83920052742009
C            8.65365281864608       -2.98175760647240       -2.40513569522961
C            9.47487621980694       -4.14633579321425       -2.83719920253501
C            9.13008013131441       -1.68509395970604       -2.52077035080968
C            8.37040680043545       -0.62108239808150       -2.09345653192679
C            7.10994399545111       -0.81262874117969       -1.53317720120637
N            6.33553957221289        0.30647162687488       -1.11119887223840
C            6.92600725016243        1.62561947591821       -1.13344774565742
C            7.86361250306247        1.99771845398230       -0.16960261548063
C            8.43690099336433        3.24439383840293       -0.19711649322948
C            8.09954175355845        4.16485971130767       -1.18783056594988
C            8.72111539474088        5.49710444410690       -1.21982148983082
N            9.57997072130491        5.77837380989165       -0.23880663439010
C           10.14527135094201        6.98348461392334       -0.27320894198106
C           11.10912903931849        7.33772675177639        0.78675610197748
C           11.47514375221805        8.65659845320089        1.05865769602596
C           12.38222131674656        8.94458541446228        2.05543170046186
C           12.93924591460372        7.92688765721138        2.80384625601971
C           12.58198222130231        6.61694070178032        2.55589510323828
C           11.67552909611234        6.32689923958322        1.55996363845991
C            9.84678461316092        7.86864065867075       -1.28817575568167
C            8.94878323138657        7.49382559472597       -2.26586147275425
C            8.59953566583138        8.40797881548905       -3.37047513711911
C            7.44929624477852        8.16667510338347       -4.11811161783655
C            7.09153615380519        8.99418909784069       -5.15967482574987
C            7.88023841760567       10.08083531753744       -5.47992895738671
C            9.02878051544338       10.33318685426919       -4.75661417248488
C            9.38823297126818        9.50681977147565       -3.71398405670217
N            8.36991377321467        6.29532359936342       -2.22904188547185
C            7.16478217622961        3.79051660748275       -2.15161500058616
C            6.58804368101206        2.54525546273401       -2.12700216613197
H            0.31116753566736        0.55511051062832        0.34850889727368
H            0.87978141967968       -0.47442206189094        1.66435406008263
H            0.44362354049391       -1.18510863445879        0.10875244805758
H            2.28548617805019        1.97400010729093        0.20788198054598
H            4.61552479930724        2.22856217259641       -0.50662807423738
H            2.69472855295975       -2.24385059297068       -0.02031912620385
H            4.19175776716750       -2.44245071052531       -3.47761617683590
H            2.97613763197891       -4.36246625356509       -4.45867627384140
H            2.60139319502668       -6.39542234171483       -3.13650706097777
H            3.43212440180385       -6.54385566010930       -0.81430353927497
H            4.45612973682265       -6.23041279405446        1.50563583396798
H            5.58084039532620       -5.49087655684699        3.57774842092109
H            6.60803440098593       -3.26571967688894        3.70371576725579
H            6.52555950565295       -1.74209926008771        1.75273448810277
H            7.03002237761880       -4.17614146452381       -1.72554587906712
H            8.85330407672598       -4.91099309376662       -3.30505025817599
H            9.98097342902354       -4.60034257836898       -1.98424274086060
H           10.23504547163969       -3.84851533809788       -3.56041671040722
H           10.10411186820864       -1.51797137611493       -2.94792283566074
H            8.74757600617667        0.38103318659828       -2.19350238533822
H            8.12791137339885        1.28905002537747        0.59566226115480
H            9.15938993514115        3.52817631602071        0.54768650356661
H           11.03136198082966        9.46032808358285        0.49865239895806
H           12.65638844605053        9.96806797487827        2.25339033516200
H           13.64939262912834        8.15519437184139        3.58192173302488
H           13.01214940178054        5.82088318326575        3.14154859693879
H           11.39223269401944        5.30756699093488        1.36387151016187
H           10.30788983532188        8.83630918173588       -1.31703577723989
H            6.84005095088645        7.31618192264264       -3.86640815394433
H            6.19648837125789        8.79239605439913       -5.72526739861489
H            7.60204514211752       10.72875514972249       -6.29512483013629
H            9.64814221398064       11.17804853462887       -5.01068120031606
H           10.29740441619705        9.70191698036144       -3.17379801449200
H            6.90389838892681        4.49644425211567       -2.92033075328345
H            5.87207774316432        2.25764685910179       -2.87695819136747
