67
 energy: -14.407516951497 gnorm: 0.000794314425 xtb: 6.5.0 (97a52f5)
C            0.84735695447636       -0.32824216940185        0.28374053753943
C            2.28272619033855       -0.16269149189422       -0.07560833955270
C            2.86835365633662        1.09295803300042       -0.13074365909815
C            4.20088856732570        1.22863633783450       -0.44321362767517
C            4.99515729364154        0.11682802287996       -0.70903049960271
C            4.41775200339712       -1.15496691361482       -0.64764628267786
C            3.07730789179749       -1.27130552861092       -0.32496209007331
C            5.26138113199141       -2.41048737082928       -0.85602481041580
C            4.47947369891415       -3.47056959647444       -1.64363771210346
C            3.98039788265784       -3.42965041917742       -2.92873223539735
C            3.30160707204644       -4.53089190123708       -3.41742254359721
C            3.12319335247225       -5.65811222510250       -2.63089258724676
C            3.61917990018923       -5.70577660924916       -1.34341216894251
C            4.30187219420756       -4.60421745700922       -0.84799410632621
C            4.92264172773745       -4.37761907914376        0.46553775710924
C            4.99233715276229       -5.19436581513175        1.58516224146273
C            5.63397678345642       -4.72449424795834        2.71404680873835
C            6.19932669131280       -3.45891892011134        2.73303816659698
C            6.13196583038434       -2.64061883607724        1.62068733108494
C            5.49326208530459       -3.10422841214595        0.48990318648935
C            6.60186263137316       -2.11698066162593       -1.52646972153693
C            7.35494202185101       -3.15773991432913       -2.04118882104344
C            8.60150152084017       -2.94998447638857       -2.61123865258133
C            9.38992477924734       -4.09693961531674       -3.14080789059431
C            9.10667783655647       -1.65904125910084       -2.63739994835502
C            8.37575288968346       -0.61254278629816       -2.12506099664618
C            7.11533566576714       -0.81694414202451       -1.57054666498648
N            6.36876483239116        0.28058332222869       -1.05116328003757
C            6.98661132399546        1.58175035885690       -0.92314240880739
C            7.43825121349550        2.03011204176149        0.31791480775852
C            8.02018940199107        3.26679099311594        0.44426808676494
C            8.16943726888196        4.10362240742576       -0.66087850865437
C            8.79536265597811        5.42765610224500       -0.52369457790460
N            8.84743936706765        6.18563702533816       -1.62475685816222
C            9.41250018781687        7.36159467333693       -1.47467131463521
C            9.91865899579508        7.79446083374219       -0.28030576241108
C            9.81289407992019        6.93950633987533        0.78180621912688
N            9.25641736440875        5.75353782142573        0.68913366472616
C            7.71207105194402        3.65499957029183       -1.89925950211803
C            7.13123412028268        2.41817979496343       -2.03021068503514
H            0.29086520713821        0.59705341179749        0.13025588099445
H            0.74135604630916       -0.61459731045981        1.33072143439374
H            0.37906509703142       -1.10170146390298       -0.32628278495483
H            2.26880503489378        1.96324145031937        0.07460603689060
H            4.64524778180467        2.20686646535911       -0.49009090506260
H            2.64114713598515       -2.25172939353618       -0.25854458591772
H            4.12480843349663       -2.54898814400830       -3.52974431267570
H            2.90694471420456       -4.51124501294875       -4.42000520582781
H            2.59142816981844       -6.50707850554478       -3.02840518674633
H            3.48442889915115       -6.57635234745020       -0.72602786936535
H            4.54877442595604       -6.17414358320052        1.56295801704778
H            5.69389346408517       -5.34822498588967        3.59091073942431
H            6.69439180634748       -3.10781366432956        3.62353179512387
H            6.56230993847510       -1.65470276708502        1.62147315440311
H            6.96462620741252       -4.15803789484562       -1.98751520233714
H            8.74985351244595       -4.79185901776647       -3.68581587365642
H            9.86807467607868       -4.64545062133305       -2.32848528217183
H           10.17059042227523       -3.75971759159283       -3.82368319450214
H           10.08045018978624       -1.48333023394018       -3.06155096251356
H            8.77752610838220        0.38443455735514       -2.15081670498266
H            7.32360746347114        1.38693553487233        1.17280745152554
H            8.37001595209447        3.60778963658059        1.40247028384928
H            9.46973345213214        7.99749923702972       -2.34557549562227
H           10.37895573637003        8.76353223406170       -0.18085705021893
H           10.19708957788755        7.23136474124823        1.74789575627915
H            7.82280667493244        4.29732872553173       -2.75485559013492
H            6.77585660198733        2.07699271361643       -2.98680689443018
