81
 energy: -17.218600513114 gnorm: 0.000725493421 xtb: 6.5.0 (97a52f5)
C            1.06395717985318       -0.35881093650907       -0.24507700628428
C            2.53031111042139       -0.28764236240690       -0.49253969514801
C            3.17449703871061        0.93167288824195       -0.63128616005018
C            4.53328092562437        0.98410826915271       -0.83712739499133
C            5.29936538271986       -0.17676188257686       -0.90642744238778
C            4.65948878212271       -1.41190027485626       -0.76692616120633
C            3.29256007580189       -1.44392944961934       -0.55363075090995
C            5.44094216034658       -2.72172904540235       -0.81711786731991
C            4.70890590413247       -3.75086768331210       -1.68849971219379
C            4.40527213728695       -3.71466166511194       -3.03329893857440
C            3.73207423841792       -4.78386242719743       -3.59501299355821
C            3.36867915398758       -5.87549073837895       -2.82227132104087
C            3.67090004357777       -5.91899143608478       -1.47597640830946
C            4.34562851134575       -4.84889852747410       -0.90647005717815
C            4.79261061390830       -4.62850394795525        0.47692719437114
C            4.66595188185585       -5.42579964732836        1.60540641073340
C            5.18377999305634       -4.97333294460751        2.80270551613373
C            5.81822099937732       -3.74348319895154        2.88099041213316
C            5.94605060053640       -2.94405532057247        1.76032551994672
C            5.43246717384106       -3.39103523312922        0.56120570910810
C            6.88095179766730       -2.54419343271510       -1.29163990115830
C            7.64748155396578       -3.66457955220364       -1.56123733257905
C            8.98049176171176       -3.57282436215973       -1.93068707027516
C            9.78452006886577       -4.79777180757870       -2.19385714415006
C            9.55678017305627       -2.31456987312222       -1.99832635762151
C            8.81202747519419       -1.18956426739133       -1.73180538767056
C            7.46465518830570       -1.27718217503903       -1.39005817903025
N            6.70278574453582       -0.09960653594398       -1.13809513100540
C            7.33970968929397        1.19512629995899       -1.19964167665973
C            7.47729375601658        1.97349887410677       -0.05090706825199
C            8.08139350700103        3.21255057659932       -0.12265852747385
C            8.55692654311566        3.66952714519526       -1.32484532606315
C            8.45968780006208        2.92274351117691       -2.49281261756938
C            7.82223261502247        1.68448237802581       -2.40721845094344
O            8.96669798308821        3.32565860220736       -3.74847107650449
C           10.04283737771411        4.23512919940198       -3.84471900520858
C           10.84568476598542        4.19629324512718       -4.99127744909495
C           11.91930305029040        5.04719550109270       -5.13401620354133
C           12.22178908974547        5.96172436857318       -4.14293520144386
C           11.43359000245498        6.02430454112416       -3.00682913355278
C           10.36633428020621        5.17547126240440       -2.87484301358945
P            9.29973150298558        5.27918523613239       -1.45568461220997
O           10.09427161955064        5.64113596888918       -0.17511442186289
C            8.01737455291337        6.49762253967032       -1.77572702473450
C            6.76792827960583        6.33197309200401       -1.22708559504029
C            5.78475644486976        7.27496653200346       -1.46723199286090
C            6.06499678010323        8.37638105892801       -2.25247845335878
C            7.32426544983108        8.53813244692060       -2.79654382949580
C            8.30502145827008        7.59329525413875       -2.55450749408208
H            0.55741099617542        0.53372482157868       -0.61391380528821
H            0.85555790371390       -0.44792877152717        0.82160928374513
H            0.62359651073731       -1.22074813342087       -0.74775497861293
H            2.59986318647921        1.84040217503650       -0.57542402906150
H            5.01949260697396        1.93598669781038       -0.95275194367167
H            2.80811967451934       -2.39595206776055       -0.43155134137343
H            4.69324052844809       -2.86193260724611       -3.62273516430947
H            3.48725362302559       -4.76689682374876       -4.64429230204003
H            2.84430491917631       -6.69978691918236       -3.27720916465428
H            3.39406118748407       -6.76317583535483       -0.86953278971241
H            4.17246623037452       -6.37907980559533        1.53650912565927
H            5.09496754350887       -5.58405398692708        3.68616176867809
H            6.21771336582143       -3.40695048813394        3.82350852719065
H            6.43777165058706       -1.98832577966962        1.80546683843892
H            7.19651667041731       -4.63622105096124       -1.46939866302282
H            9.15504158997013       -5.61036060297106       -2.55839343214869
H           10.28003743641429       -5.13796934859928       -1.28397556311013
H           10.55165232552759       -4.61038440006656       -2.94601002593752
H           10.59701940316527       -2.22590425518062       -2.26144935632798
H            9.27600362917578       -0.22134794815800       -1.78176109155124
H            7.10450065012291        1.59532001156671        0.88453210839781
H            8.18880788746972        3.82714120640583        0.75731022481444
H            7.71581701473702        1.09321752886213       -3.29675058175910
H           10.60857878094941        3.47833782485249       -5.75620281394617
H           12.52788909649697        4.99804840033584       -6.02201954839982
H           13.06298813889983        6.62558924549720       -4.25520787297833
H           11.64622892057493        6.73465952549532       -2.22324872755123
H            6.56450834358369        5.46667218419265       -0.61704090469268
H            4.80250278847203        7.14996464039522       -1.04207051237116
H            5.29969195336986        9.11165897598217       -2.44044601988660
H            7.54305618541950        9.39778512670561       -3.40844047628953
H            9.29201503987474        7.70447039637723       -2.97374094446735
