81
 energy: -17.298620262644 gnorm: 0.000584616233 xtb: 6.5.0 (97a52f5)
C            1.09274603259215        0.22445254208400        0.05468786980789
C            2.54310385490720        0.16247550170471       -0.27572758445612
C            3.31288668157332        1.31384115038919       -0.33639843155126
C            4.65834285155629        1.24135686181496       -0.61223431914699
C            5.28301097864711        0.01711279607588       -0.83315871681154
C            4.51738409541741       -1.15066956324194       -0.77191518488230
C            3.16689475511766       -1.05788214386155       -0.48556342871985
C            5.16696454534615       -2.52154355337142       -0.94084441659778
C            4.24688853497744       -3.47149957735220       -1.71930802968370
C            3.78018045912494       -3.38937729771007       -3.01452141072278
C            2.95189311329944       -4.38888476022514       -3.49086563116368
C            2.59503918663027       -5.45684397825529       -2.68292913152807
C            3.05848280754625       -5.54573429054003       -1.38572320859513
C            3.88981474653753       -4.54597211631721       -0.90213199059276
C            4.52215714892677       -4.38526872712889        0.41560149446293
C            4.46392910857103       -5.18215371176293        1.54999476314681
C            5.16299485201984       -4.79191097334917        2.67502158754820
C            5.91094897732867       -3.62489344911600        2.67579200615546
C            5.97191678113173       -2.82672194317336        1.54876423333674
C            5.27629514990707       -3.21128345856487        0.42210971597617
C            6.54697471589460       -2.44410356989535       -1.58998757677035
C            7.13979678650497       -3.59401205738791       -2.08094363289961
C            8.42076248974852       -3.59112544479795       -2.61138704495200
C            9.03883005872312       -4.84903915330695       -3.11353909321424
C            9.12777309795860       -2.39917059415642       -2.61414099029661
C            8.55825014516448       -1.24711733560881       -2.12450938858050
C            7.26139173877966       -1.24191300836130       -1.61811597681263
N            6.67562836526830       -0.03830771837906       -1.12799610076565
C            7.48079692065333        1.14894646577987       -0.95964215326200
C            7.78030320184766        1.61780623453481        0.31846946640601
C            8.55102275105521        2.75225360991779        0.47497331444433
C            9.01650135105398        3.41715631323301       -0.63020019396362
C            8.73309372229910        2.99805190541485       -1.92481935507889
C            7.95299577426183        1.84887154179392       -2.06326490537314
O            9.17587651796871        3.63405238235148       -3.10427453769436
C            9.70177475369427        4.94296860757272       -3.11160756853117
C            9.81106414368298        5.59328286335050       -4.34721723051247
C           10.30677609007487        6.87511187564739       -4.43518692058217
C           10.71044893580559        7.54687060965343       -3.29722379878216
C           10.61968844512204        6.91958633509122       -2.06637514822824
C           10.12719383192048        5.64356566934571       -1.98980727814697
P           10.05026673697224        4.83433272494079       -0.41994795286681
S            9.27739690763333        6.08429418215973        0.99874240542051
C           11.67845557223919        4.32626663587038        0.10082827163213
C           12.42580508950362        3.48255087668148       -0.68583164501167
C           13.68274104981547        3.09278253459307       -0.25937668770707
C           14.17306409620478        3.55222149537495        0.94838509532998
C           13.41287180543478        4.39953389588801        1.73167313159946
C           12.15575620103234        4.78801382749161        1.30234211406185
H            0.66848167135171        1.19381665051365       -0.20873309709608
H            0.93243171080017        0.06514674640634        1.12144429945189
H            0.53482384936416       -0.53961243462806       -0.48777850020808
H            2.84697448593298        2.26862851253173       -0.16225417118211
H            5.24527483673939        2.14092309313479       -0.66301993311873
H            2.58652321641955       -1.96004235101894       -0.41458928452571
H            4.06422004337244       -2.55587453542505       -3.63264371227264
H            2.58046315339629       -4.33617019584271       -4.50104464094680
H            1.94882204313530       -6.22690863816105       -3.07116736764342
H            2.78667492996744       -6.37127613374098       -0.75199089306831
H            3.88059123288665       -6.08586286731104        1.54194872248235
H            5.12657068907546       -5.40201639400931        3.56262310443405
H            6.45002294734820       -3.33568208244499        3.56288275545435
H            6.54757318678839       -1.91815329282313        1.53329047281855
H            6.59488160275939       -4.51969287692234       -2.03740906951662
H            8.28344450563602       -5.52289141264052       -3.51916196805419
H            9.55984735587078       -5.37116653427388       -2.31039542616886
H            9.75935173732471       -4.64432301659097       -3.90612983398553
H           10.13194726063826       -2.38411716371504       -3.00220477904618
H            9.12151011750969       -0.33189437072847       -2.12779719192426
H            7.40803826557881        1.08121551814806        1.17311003017026
H            8.79516520306432        3.12579893245452        1.45747631429955
H            7.70769019245086        1.50561070467135       -3.05018500038737
H            9.49295704481520        5.06688388782717       -5.22945353882172
H           10.37872232903064        7.35737619200900       -5.39622942727933
H           11.09553861888229        8.55062047670632       -3.36627205241201
H           10.92867684490664        7.42199162996502       -1.16266718184478
H           12.02242795058912        3.13385823699265       -1.62359744341633
H           14.27670958778667        2.43104329516662       -0.86789799974811
H           15.15192360383761        3.24763815514141        1.28094775767069
H           13.79552680996843        4.75658023324143        2.67353696714968
H           11.53801701528935        5.44736102248806        1.89290328389875
