81
 energy: -17.423600918172 gnorm: 0.000736765359 xtb: 6.5.0 (97a52f5)
C            1.00447200494823       -0.11906557262953       -0.52689103533506
C            2.47600827876290       -0.09598934707199       -0.75276030895325
C            3.15368205879140        1.10245061929419       -0.91286683829438
C            4.51662831262567        1.11506947844002       -1.09611115754780
C            5.25150523275503       -0.06716161407573       -1.12165323733461
C            4.57964220614045       -1.28154839629852       -0.95559644227338
C            3.20880092536755       -1.27297283718403       -0.76721513127517
C            5.32700242655043       -2.61283079390867       -0.95057859891994
C            4.62965621947881       -3.61861035673528       -1.87541962003534
C            4.42345608372332       -3.57105436399108       -3.23818880756059
C            3.75960592500061       -4.61835568913587       -3.85001171905272
C            3.30730950244967       -5.69862223609970       -3.10882304672177
C            3.50981762473248       -5.75228423352576       -1.74430550520061
C            4.17559776741524       -4.70455239068700       -1.12487307014782
C            4.52465599810497       -4.49721398610055        0.28827244879504
C            4.28765544111093       -5.29027668920701        1.40172280847733
C            4.72757975247642       -4.85423599188711        2.63559280715986
C            5.39416780329213       -3.64582867662377        2.76398737926705
C            5.63319646024502       -2.85152021072066        1.65787504381710
C            5.19678154451164       -3.28127677444414        0.42237314815533
C            6.80063842047880       -2.48082061494994       -1.32802078818436
C            7.56474673876701       -3.62397892952835       -1.48436337978096
C            8.91339570463910       -3.56992153913754       -1.80145850085081
C            9.71458289678870       -4.81776619490178       -1.93567978570724
C            9.50535126270959       -2.32488835738998       -1.94406907997456
C            8.76365810553209       -1.17712035629185       -1.78963497858022
C            7.40618481801248       -1.23059023760492       -1.48464632030157
N            6.65995288815376       -0.02997831064240       -1.32167554561468
C            7.33491781451012        1.24620712364710       -1.38056683722597
C            7.64557516649334        1.93852969969514       -0.20810535472028
C            8.27895676980069        3.16549152599394       -0.26830481443889
C            8.61391443214105        3.69693038050708       -1.48918621394448
C            8.32490505114540        3.02495561078617       -2.65892519214086
C            7.67884191209843        1.80618776325961       -2.60859351692598
S            8.73696723055980        3.64427597252075       -4.18378881793946
C           10.07207006112997        4.69113341741770       -4.14681046989961
C           10.84208082216958        4.81514846501626       -5.29167845680661
C           11.94638442527463        5.64420595622235       -5.28648263959282
C           12.28090420276911        6.35299034186605       -4.14535848762293
C           11.49880599394347        6.23795225402429       -3.00653983623747
C           10.40483808480080        5.41014987102326       -3.01827086909883
P            9.32671791043374        5.32169053577457       -1.60609119423851
S           10.33427796977199        5.79567687845163        0.10519400154033
C            7.99899904942219        6.48921496241016       -1.84008386495561
C            7.81353922475636        7.50867349305826       -0.94047918036203
C            6.77613904463947        8.40397626323433       -1.13333918182153
C            5.94130812776271        8.26302243005320       -2.22627780996781
C            6.13832351228088        7.23262427262978       -3.12632531157131
C            7.17572485703274        6.33918860919484       -2.93044691506305
H            0.51609117988474        0.71501666584384       -1.03191552373605
H            0.77529496590367       -0.05082082434531        0.53706584234311
H            0.56278718609242       -1.04051048812948       -0.90806657993943
H            2.60131238193062        2.02633508719813       -0.89150513919934
H            5.03175670115972        2.05012327926293       -1.22512029536233
H            2.69852122300045       -2.20868449699350       -0.62570082187748
H            4.77860097737908       -2.72679033363565       -3.80265729720381
H            3.59224043999915       -4.59352876017809       -4.91425834817749
H            2.79137755967380       -6.50556905649644       -3.60283677621521
H            3.16150992307281       -6.58671382701688       -1.16168468553068
H            3.77014158843944       -6.22703105882016        1.29363050348263
H            4.55020104880809       -5.46053746086740        3.50871371466133
H            5.73000995180151       -3.32158892642874        3.73522319604693
H            6.15004127069904       -1.91193113914384        1.74329859278411
H            7.09727924871104       -4.58275356383155       -1.34952332434826
H            9.09587574068169       -5.64741371985304       -2.27964133316966
H           10.15403262310708       -5.09918361301249       -0.97805405196520
H           10.52491633593865       -4.68934363155919       -2.65409573802948
H           10.55528826443291       -2.26460448637348       -2.17458009034672
H            9.23439695468987       -0.21709596242966       -1.90304498549113
H            7.37785228885067        1.50445278619948        0.73877294756513
H            8.51159867409807        3.71821251216949        0.62834059280796
H            7.44980110274982        1.29008945239723       -3.52351459657226
H           10.56784101979538        4.24968576901365       -6.16659340053785
H           12.55061653445878        5.73792243736245       -6.17373373783507
H           13.14279606415658        6.99943737275648       -4.14326574563889
H           11.73148983124919        6.79105941110574       -2.11001946347390
H            8.48109589311229        7.59255220161130       -0.09685397611852
H            6.61971523204928        9.20723843679640       -0.43227716244842
H            5.13294542466015        8.95975240902311       -2.37701545674525
H            5.48567669125054        7.12349421129151       -3.97684796005514
H            7.35450161177043        5.52422809318975       -3.61623867472928
