88
 energy: -18.939037863333 gnorm: 0.000839793632 xtb: 6.5.0 (97a52f5)
C            0.89811951290411        0.15645243862216        0.14218643112282
C            2.38642946551235        0.19285553600352        0.11924295760093
C            3.07709992422377        1.39408732219141        0.08262525913932
C            4.45167307497405        1.40753334574941        0.04768479131726
C            5.18730193319827        0.22499241266591        0.04450373027181
C            4.50089827514772       -0.99182056238385        0.08803445216745
C            3.11711677660113       -0.98487513683305        0.11642203231641
C            5.23555024337807       -2.33463975730596        0.08947541182069
C            4.75440046916267       -3.14002539239694        1.29483237816789
C            4.94866633254376       -2.63681654841587        2.56834033263353
C            4.52674966448147       -3.32951232259395        3.68423789334705
C            3.89881475426131       -4.54850424233161        3.53533989138367
C            3.69695428006597       -5.06530392460013        2.27761993067081
C            4.11649408041997       -4.37802420486804        1.13747974381979
O            3.87750292454143       -4.96243947563877       -0.10741369831014
C            4.28512981791784       -4.28557135888706       -1.25795330372104
C            4.03822038116647       -4.88248757434487       -2.49545795328093
C            4.41196786177165       -4.26937704314612       -3.66795085513901
C            5.04268321514018       -3.04325781843482       -3.63261295208206
C            5.29502481030246       -2.44014659628891       -2.41830174637455
C            4.92702771584944       -3.04053919431550       -1.22809000369518
C            6.75541759890750       -2.17904427041054        0.19039429953674
C            7.53731630696235       -3.31678429936146        0.29125638150323
C            8.92220527146804       -3.25725897403832        0.32902557190426
C            9.74511141496704       -4.49417269640863        0.42967509135110
C            9.52716531503684       -2.01323324736209        0.25655989159730
C            8.76773724786392       -0.87128464969716        0.15582390483706
C            7.37655977340702       -0.92790158083709        0.12782983698967
N            6.61047932772946        0.26726167840806        0.01426762208615
C            7.27886692199542        1.54194865350424       -0.10910986190050
C            7.95528880441976        2.10290510440392        0.97480334249444
C            8.57138410366331        3.32374424149353        0.85780144529935
C            8.53271069594620        4.03188108796487       -0.34210794360925
C            9.18603663339392        5.34350693509825       -0.46318032290401
N            9.86884522653138        5.77036051173465        0.59989531610819
C           10.45165065441767        6.96226742469190        0.48994410824846
C           11.21799585885103        7.47807384354070        1.64063870179886
C           11.51579625082076        8.83232728564543        1.79584333271059
C           12.23579199442453        9.27428711348346        2.88443360410093
C           12.67038024769051        8.37821646472202        3.84063019270330
C           12.37736988910047        7.03587864034471        3.70853748015548
C           11.65640739929185        6.59216605288756        2.62199026986097
C           10.35195214910910        7.68656512291658       -0.67962224314631
C            9.63306130718287        7.16449530015158       -1.73464971060692
C            9.50032991747615        7.90314068642189       -3.00527327975757
C            8.47456268730517        7.56895134160157       -3.88632488966092
C            8.31979483072349        8.23461684299569       -5.08224042222798
C            9.19255380235602        9.24692144310535       -5.42650957874258
C           10.22225306184969        9.58677220244259       -4.57195044547746
C           10.37823977283420        8.92280221009250       -3.37459666411802
N            9.03290553942059        5.98126596129427       -1.62439515022504
C            7.85786256950889        3.46932315650400       -1.42412807338539
C            7.24217823344023        2.24808893944365       -1.31180718272972
H            0.47865373605562        1.14693468094814        0.32204466095936
H            0.53757931620208       -0.50516090772164        0.93084031780312
H            0.50534633136897       -0.20636866089391       -0.80837215474435
H            2.52677664975624        2.31936006665865        0.08161232587417
H            4.97619758235643        2.34592085460607        0.02666750056853
H            2.59435570472718       -1.92434767594732        0.13830799467361
H            5.43919416279809       -1.68492166206252        2.67788710855979
H            4.68774080399942       -2.91995138566075        4.66790730475172
H            3.56729054845817       -5.09457056271057        4.40340897914482
H            3.20812923047501       -6.01464613759194        2.14789576122212
H            3.54632061305100       -5.83885297979493       -2.51059899790305
H            4.21198445945362       -4.74648832556043       -4.61353116760555
H            5.33797360663919       -2.55844377334084       -4.54857506976018
H            5.78850529200463       -1.48437251007651       -2.38127730118103
H            7.05153762406796       -4.27527874992339        0.32950370773846
H            9.11905839292430       -5.38561823859489        0.48250710475602
H           10.37086630101713       -4.47243601368667        1.32268540799730
H           10.39864975376251       -4.59661513211352       -0.43747880659980
H           10.60182375668038       -1.95061489203341        0.27628538110227
H            9.25123059677324        0.08666093509433        0.09048285336546
H            7.97743961080792        1.56388589927547        1.90590491655776
H            9.09153839054109        3.75423128540515        1.69532481569760
H           11.16246041374426        9.54269629168368        1.06975681038920
H           12.45780178917481       10.32355397386508        2.99175394631427
H           13.23402045209581        8.72670124949414        4.69063313618713
H           12.71261614682347        6.33495890454541        4.45551499992666
H           11.42207858799787        5.54740800669252        2.51541143786793
H           10.82910129822413        8.64301485949777       -0.76795308389394
H            7.79992968801964        6.77577834270891       -3.61551224199778
H            7.51784680753092        7.96439700735802       -5.74969735380095
H            9.07272480430885        9.76829827302075       -6.36217499363303
H           10.90862333321889       10.37188891052710       -4.84444718850579
H           11.19866207698491        9.18008460094594       -2.72862313006246
H            7.82865253934117        4.01060533689674       -2.35329052526381
H            6.72197327695513        1.81645969927120       -2.14902380443785
