69
 energy: -14.094597158804 gnorm: 0.000867243000 xtb: 6.5.0 (97a52f5)
C            0.96083018199255        1.94260794954254        0.40255286722394
C            2.16383384008235        2.00981775827767        0.52764028263861
C            3.57058838862126        2.06926473230631        0.64214998090608
N            4.25856684546232        1.38188093062340       -0.46538315049695
C            4.59453302396304        0.01957313953930       -0.48900400714618
C            4.45457578565777       -0.98375559504881        0.47096011836481
C            4.87514829443942       -2.25421623224289        0.16251968635502
C            5.43123119152693       -2.54741348982298       -1.08500900797689
C            5.57226692082541       -1.57220023541242       -2.04407370480778
C            5.15145411532344       -0.27712350854624       -1.74654699796936
C            5.13553650205195        0.94595729082985       -2.51885751899967
C            5.53857062029652        1.23767182887249       -3.81470664979806
C            5.37243345629752        2.52892396095642       -4.31313226197194
C            5.79557104455678        2.81496749971075       -5.65966883805042
C            5.65697329713265        3.99390244535590       -6.29907585369525
C            6.08724783823392        4.22237718350562       -7.63205473022946
C            6.74132441625962        3.32031786636810       -8.53988145692534
Cl           7.17033714822363        1.69312633864707       -8.20416456772561
C            6.97637022257071        3.97886486005344       -9.74435776338748
C            7.63041938377837        3.37840127789389      -10.92836526941310
C            6.45814813795550        5.29770857098067       -9.60854141155615
N            5.95050166043481        5.37473630912384       -8.31542064477355
B            5.29750705819727        6.62300645094036       -7.71256300509553
F            3.98517817077116        6.33309917913615       -7.36696277255204
F            6.02846362908279        7.03597780037482       -6.60769800664958
N            5.30952989295268        7.73102449145993       -8.77106852126566
C            4.80639420137166        8.94400783041256       -8.56854494819653
C            4.16282015790589        9.43630245790561       -7.33985902098306
C            4.98688805776635        9.64676152565384       -9.79542938417488
Cl           4.50179560408682       11.26674024023839      -10.09501433215535
C            5.61497353771413        8.80557186683802      -10.72016014761986
C            5.97000051782476        9.17617721041135      -12.10820991560128
C            5.83321865611837        7.56892779084881      -10.06576981549207
C            6.41700184431211        6.37082210094711      -10.52643619214911
C            6.95199132286602        6.24156736608686      -11.90379132621338
C            6.19285282499466        5.64059696047899      -12.91338125909311
C            6.69505426903272        5.52059636711837      -14.19392029878746
C            7.95669434517985        5.99536979007439      -14.48825637840362
I            8.70890666353011        5.80703866944754      -16.41967404307348
C            8.72241867875642        6.59249803059507      -13.50803509610637
C            8.22809387296912        6.71594951691813      -12.22472448994213
C            4.78970760886318        3.51654812932117       -3.48092405333811
C            4.39088507150703        3.24048544434141       -2.20151213456743
C            4.56540057220842        1.94484118482395       -1.70367767714850
H           -0.09776430656633        1.88214497595667        0.29017851426870
H            3.89905495157983        1.61904502741449        1.58408764731950
H            3.91169440900232        3.10896125665155        0.66624227564471
H            4.02090395409459       -0.75553596949695        1.42783084436247
H            4.77404061935093       -3.03916745466549        0.89379774064618
H            5.75089790387249       -3.55383686133054       -1.29917752725188
H            5.99299679118612       -1.79190393888791       -3.00919975125139
H            5.97067813969553        0.46869709425027       -4.42789183897613
H            6.25794618639952        2.00905142469755       -6.20009032715809
H            5.19171726776984        4.82412608502833       -5.80229447440304
H            8.06448788211379        2.40941775419772      -10.68023360457342
H            8.43137139346570        4.01846569196683      -11.29878020320140
H            6.91257190685060        3.22721723585973      -11.73462937387849
H            4.30214617002405        8.72305285399129       -6.52697965523429
H            3.09219633989266        9.57278568050218       -7.49187925976782
H            4.59008045931476       10.39136575486765       -7.03419030031030
H            5.56163288446902       10.15407508013507      -12.36405305173910
H            5.57350220281412        8.45148839930248      -12.81937765405966
H            7.05160897865914        9.22187712494863      -12.23403851139937
H            5.20881313788573        5.27444975446519      -12.67778695473772
H            6.10993262351054        5.05703549135591      -14.97331463032894
H            9.70696709837303        6.95830178909274      -13.75608317936257
H            8.82192548948683        7.17491555071087      -11.45378971445652
H            4.65799802568107        4.51221900840980       -3.86373864332810
H            3.94541061712931        3.99610990471270       -1.57978464878560
