32
 energy: -7.092489188203 gnorm: 0.000969653624 xtb: 6.5.0 (97a52f5)
C            0.93648597515310        0.01433723328907       -0.07367155379213
C            2.42528385512334        0.03168820324209       -0.07427721091913
C            3.13358978478102        1.23485554130991       -0.07477724897191
C            4.50232567439169        1.24630670031239       -0.07534872204881
C            5.24285551292171        0.05447579217940       -0.07543165887759
C            4.53723025622416       -1.16671437331714       -0.07498595023242
C            3.13370768368335       -1.14336796301722       -0.07436409719974
C            5.24701731089900       -2.42110588220381       -0.07515548038621
C            4.51263841402612       -3.61259626923059       -0.07472780664401
N            3.87873530199146       -4.58643219947905       -0.07269471941295
C            6.62180396118050       -2.43983848967785       -0.07589779376685
C            7.32359706437730       -3.65080798314736       -0.07570397915424
N            7.93199360304456       -4.64075412582004       -0.07677160330430
C            7.36565603100544       -1.20529877945996       -0.07676258578865
C            8.76935667093723       -1.22076240747833       -0.07836871318539
C            9.50943219450607       -0.06443406484817       -0.07927765425937
C           10.99809595307040       -0.09778708752498       -0.08157120914127
C            8.83405324329689        1.15646706496263       -0.07816011923204
C            7.46622324664752        1.20588117849436       -0.07665283139618
C            6.69351932317729        0.03468224430898       -0.07621741317592
H            0.52656147325660        1.02458255589742       -0.07400229067876
H            0.55586943440633       -0.49974006618776        0.80943308486342
H            0.55516093116511       -0.50059393299198       -0.95597353312691
H            2.58742165337912        2.16254995319888       -0.07473668070919
H            5.01285863924856        2.19165386965257       -0.07580933930364
H            2.59963874581179       -2.07570631678043       -0.07397834139530
H            9.27514374559575       -2.16854681722537       -0.07908034461403
H           11.37370527833656       -1.12131218369234       -0.08369269767459
H           11.39759273602542        0.40235773814755        0.80119935364644
H           11.39489158102819        0.40492334527407       -0.96411207573678
H            9.40795568050345        2.06742586446910       -0.07855375019745
H            6.98195904080493        2.16494165734397       -0.07583503418415
