118
 energy: -25.443179718161 gnorm: 0.000774975281 xtb: 6.5.0 (97a52f5)
C            0.93734614817799        0.02852300395826        0.31951393214173
C            2.42096208066803        0.03037644080725        0.19355432293842
C            3.08904544062270        1.17112761333687       -0.28472003493793
C            4.45424996899993        1.20385156262277       -0.42094975829866
C            5.19056137462372        0.07374397791820       -0.07342222464181
C            4.53550411779571       -1.08396594030113        0.37626355123412
C            3.14656835376864       -1.10058859529306        0.51132560527529
C            5.55122680164890       -2.07043338588978        0.65028322474700
C            5.48753876642799       -3.37196112418968        1.14973993914406
C            6.65743953372753       -4.07545535466682        1.35861601579703
C            6.61781825457187       -5.47024716136471        1.87868651653527
C            7.89131670081824       -3.47657043331550        1.04970433757472
C            7.97154617273119       -2.19646176608148        0.56084967888464
C            6.79275530206162       -1.48123340245223        0.36062722453605
N            6.58245903366031       -0.15052930094498       -0.05697997585359
C            7.59667733870953        0.87004427880114       -0.10714547990716
C            8.50212754248250        0.91838912136871       -1.17213754633638
C            8.42237301617900       -0.01741562366015       -2.20878126692521
N            8.35354250284088       -0.79503110853763       -3.06894297651809
C            9.48923721643285        1.90916090467595       -1.19156502949807
N           10.42707846032547        1.98341619148225       -2.28118282104934
C           11.82445264196929        1.83130825755909       -2.17364423551125
C           12.60794259474769        1.32184813278389       -1.14096170628599
C           13.97386247111430        1.35318460221633       -1.26996833650444
C           14.59606371790765        1.88070413181929       -2.41515414888854
C           16.08087081738802        1.90343962537948       -2.52446997984027
C           13.82035498670091        2.36111003330438       -3.45125101519295
C           12.42970910378238        2.33429794370714       -3.33645167877444
C           11.37236942722282        2.78346114697460       -4.20855775259371
C           11.38422539970919        3.40215915782128       -5.45944886136975
C           10.18872023380289        3.77372841110286       -6.04293434789979
C           10.16635933117750        4.42745356690741       -7.38082308302760
C            8.98054792643519        3.51791173567834       -5.37165585663257
C            8.95162347024037        2.91489944249194       -4.13900042249211
C           10.15692663327289        2.54342041025424       -3.54700909141398
C            9.56773912184160        2.85161415403926       -0.15176174181805
N           10.60334428497497        3.85104238107637       -0.18460802872930
C           11.80493208068044        3.79372012019121        0.55157551635970
C           12.18327967210970        2.97428203614289        1.61299352286174
C           13.46016465030431        3.07962088796134        2.10548366002497
C           14.39089052769083        3.98305400207707        1.56200932036268
C           15.76540669606202        4.08009328781645        2.12648689156579
C           14.01442571894076        4.80168898879796        0.51596724906746
C           12.71889343547545        4.70944009820873        0.00549482675676
C           12.05477055764385        5.37626045784890       -1.08732435980080
C           12.48335501302335        6.33994773772810       -2.00130281141419
C           11.61306625599057        6.78253245869537       -2.97797373430051
C           12.05710253769408        7.78192173687096       -3.98838399414553
C           10.31270537245867        6.25260997067450       -3.03929050716940
C            9.87699923468373        5.30317130577663       -2.14925240501801
C           10.75657861804878        4.84743768867864       -1.17023861811151
C            8.66263305277044        2.80295324391056        0.91360333603308
C            8.74143936271467        3.73970044039594        1.94954313498934
N            8.80337429039683        4.51594035917809        2.81151845598684
C            7.67897437542942        1.80868304174717        0.93584245321539
N            6.73191335360350        1.74186826139441        2.01810842314786
C            6.58936880813649        0.66698187779987        2.91931753898103
C            7.43257413595774       -0.40634706612241        3.19661901187635
C            7.01251618652218       -1.36502083087628        4.08426771376714
C            5.75993078927583       -1.28742958641230        4.71790874839296
C            5.33582812465480       -2.34415385503462        5.67726510447246
C            4.93553876453514       -0.20867220782628        4.46695954593986
C            5.34887789912762        0.77569414774970        3.56804805935792
C            4.71429834539221        1.97476599233215        3.07843025701923
C            3.47021964657441        2.55255814676117        3.33543063490390
C            3.10475157441267        3.70194882056330        2.66248826125089
C            1.79066858129533        4.34999781121365        2.92820322229245
C            3.99494954100782        4.27749852529765        1.73921404514145
C            5.22021155833762        3.71968572550256        1.47180762806189
C            5.58725933762641        2.55598030570458        2.14425335670302
H            0.55070384349200        1.03997881957638        0.44890733523259
H            0.61792325423182       -0.55965476021135        1.18065334197386
H            0.47371099754696       -0.39752378807061       -0.57094163145075
H            2.50786697118750        2.03973187995747       -0.54256360605729
H            4.96361617194068        2.08075246045377       -0.77844363901647
H            2.65176178384918       -1.98583881405733        0.86643198670121
H            4.53472368492636       -3.81345675224507        1.37719998221427
H            5.68014675919150       -5.67253202170790        2.39779724020430
H            7.43086436133288       -5.64817691898738        2.58361164392623
H            6.71311927981070       -6.18965962239196        1.06450504586073
H            8.79257557010099       -4.04355371308884        1.20837141652877
H            8.91730300625863       -1.73740491086340        0.33460084506262
H           12.13446750071305        0.92675110224677       -0.26011120521712
H           14.59146196644230        0.97373667054893       -0.47421323213731
H           16.55351878200266        1.69521694134630       -1.56399679520398
H           16.43137097920593        2.87989809857630       -2.86102106871731
H           16.42839322282549        1.15552486283908       -3.23807403539178
H           14.27934838492399        2.76152335045232       -4.33645723104047
H           12.31858447359062        3.59148508947884       -5.95497549124363
H           11.16948186365382        4.70883628004027       -7.70317678972798
H            9.55805900298012        5.33251541590339       -7.36179168463968
H            9.74942788570758        3.75636651380568       -8.13267727533334
H            8.05834792233972        3.81019457570729       -5.84397978468644
H            8.02602206414279        2.72790114167362       -3.62453942913330
H           11.47596457859296        2.27687345882889        2.02490141923671
H           13.76604642536736        2.45498085007243        2.92707015354778
H           16.01553468170586        3.19686147784708        2.71540207401689
H           15.85720806308795        4.95299444978232        2.77389065750728
H           16.50810494275474        4.16996901892021        1.33276652297808
H           14.71195739909231        5.49914990421887        0.08983258945117
H           13.48609967524590        6.72223161660852       -1.94738384831624
H           12.88153535012713        8.38708468375821       -3.60937810103269
H           11.24440943339770        8.45916476768317       -4.25387291459254
H           12.39474613469483        7.28665087933138       -4.89946498273812
H            9.65087649279311        6.59953105747049       -3.81415570870225
H            8.88304696105538        4.89638560985499       -2.20153501254650
H            8.38657759812784       -0.47344575236072        2.70517232069665
H            7.64939950649217       -2.20569966247809        4.29949898286220
H            5.90440544812647       -3.26318374849469        5.53116889143168
H            4.27980793755023       -2.58567700589489        5.55044976087985
H            5.48611303099198       -2.01605122207224        6.70639079628480
H            3.97918191126832       -0.12804744612052        4.95012094787121
H            2.80398960995639        2.09761824091078        4.04512268163437
H            1.09964336418383        3.66043537583216        3.41453298034417
H            1.32553043233307        4.68513495331629        2.00033419747904
H            1.91161507412590        5.21776105289381        3.57775571807708
H            3.69729224971200        5.17846427589429        1.23068141171500
H            5.89584957858472        4.15803430112651        0.75926208680041
