117
 energy: -25.043948236765 gnorm: 0.000783349581 xtb: 6.5.0 (97a52f5)
C            0.81638831331050        0.64563740377918        0.63628796955666
C            2.28043751988591        0.56773649908771        0.37602855684693
C            3.05357154035869        1.74102986621963        0.33690971767229
C            4.40281527545783        1.70851500219098        0.08858144454628
C            5.01753805899992        0.47695940377188       -0.12683418805822
C            4.25398794386862       -0.70160561232032       -0.11615784736755
C            2.88244570175510       -0.65201929523455        0.13700076589257
C            5.15774490069043       -1.79941533401271       -0.36399702572539
C            4.96423856243738       -3.17999492046437       -0.42778373347930
C            6.04827355010213       -4.00732527047033       -0.64633181175369
C            5.86942147312443       -5.48513230263538       -0.68808359718400
C            7.33082182992313       -3.44762175002248       -0.78275486251366
C            7.53854759800683       -2.09206855894615       -0.72092202382980
C            6.44352272732898       -1.25482205304678       -0.51464199762477
N            6.36925771615698        0.14375666634698       -0.34941894927643
C            7.50003529775201        1.02201609456057       -0.23256020809512
C            8.41552798266871        1.09498718124032       -1.26625525212966
C            9.53150656490755        1.91667023094182       -1.18950592575826
C           10.49140266464358        1.98096281568267       -2.30000128949475
N           10.21120600595240        1.27339837370708       -3.38341073048251
C           11.10654918297609        1.37527440519190       -4.35323462888032
C           10.84593124516627        0.62536020059713       -5.59402801611704
C           11.71463466045749        0.71773554407306       -6.67809330097096
C           11.46753562342746        0.01948740620944       -7.83942352158441
C           10.34897769195609       -0.78487470800453       -7.93806109317093
C            9.47769221301250       -0.88850828004566       -6.87126058473768
C            9.72317895297278       -0.18982136313683       -5.70986940228080
N           12.21439979641590        2.09937748885399       -4.29813982134754
C           12.39205349185315        2.75616722015625       -3.16156246452268
C           13.61296978024046        3.57021202834777       -3.03251267748397
C           13.86977371470210        4.28815393454899       -1.86753824231717
C           15.01482752192719        5.04383825678102       -1.74468920644566
C           15.92347956713937        5.09575949633950       -2.78382914867308
C           15.68333779705414        4.38952313269031       -3.94639398244226
C           14.53897271760949        3.63303378763043       -4.07021238746284
N           11.56352696017454        2.73876239092101       -2.12936709187477
C            9.72414510324045        2.67385891434230       -0.04232221959461
C            8.83371431318065        2.62162437802340        1.01424710139140
N            9.06988559028285        3.42693114967250        2.18035025641556
C            9.07737654469701        2.98469396928613        3.51896809992951
C            9.03129788906648        1.70053491843593        4.05719936254348
C            8.99665446969816        1.55459888508260        5.42125565591802
C            9.02102760565382        2.66435315169546        6.28398458652298
C            8.94554380779271        2.47259250796095        7.75866205527947
C            9.07629524245820        3.93798480727380        5.75318895089496
C            9.11218197024805        4.10280754031188        4.36780926397883
C            9.15197857965619        5.27635333355220        3.52836500955237
C            9.16243257982159        6.64097137493703        3.82008538298320
C            9.16269359527623        7.55570709088060        2.78543069408982
C            9.14296112014264        9.01633383905669        3.07489465978169
C            9.13391976377981        7.09839347206422        1.45613348572821
C            9.12170482979601        5.75980901644108        1.15199107530179
C            9.13660329577425        4.83545725984137        2.19494623543440
C            7.70204818352931        1.79132742140663        0.92708983563039
N            6.76368312603842        1.72988040107714        2.01096727013978
C            6.39710939049025        0.57440095055086        2.73293522738502
C            6.82441466073946       -0.74658340805968        2.62056181263897
C            6.30041467768313       -1.68727725408885        3.47114514196548
C            5.34945453222404       -1.35006571501430        4.44963574014553
C            4.81855767111533       -2.39334875804997        5.36966384654127
C            4.94102778154335       -0.03703869955167        4.57797561803231
C            5.46336428313614        0.93026832059892        3.71902181718651
C            5.24606996619074        2.35256158957712        3.61016248811976
C            4.43894521901420        3.23726800175216        4.32590957682185
C            4.43574170416007        4.57662442590240        3.98867986565300
C            3.56799304553449        5.53559247128255        4.72638257988748
C            5.22715243532156        5.02285082007884        2.91643372422249
C            6.02442965568105        4.16416415199215        2.20231295636472
C            6.04843118693697        2.81711409422724        2.55605663119551
H            0.57508059104473        1.49551871312856        1.27599604935486
H            0.45710024371345       -0.25532608430483        1.13524649844711
H            0.26283539467529        0.75774026725525       -0.29676132793264
H            2.56775210275389        2.68529365684309        0.51353984630832
H            4.99395317450644        2.60623574395408        0.07511841189203
H            2.30577459533872       -1.55862827342775        0.15203356055917
H            3.97996457188535       -3.59116704662205       -0.29799233790778
H            4.88422189868798       -5.75174880014516       -1.07281854536668
H            5.96908507441919       -5.91512470174077        0.30932908418467
H            6.61387629979580       -5.95388620135913       -1.33286508341259
H            8.16741040745657       -4.10784495531162       -0.93525473957349
H            8.52258276548455       -1.66998017298557       -0.81891338232628
H            8.25751252478687        0.50643757467043       -2.14995934698534
H           12.58343023460234        1.34660108304176       -6.59418354730238
H           12.14729252820936        0.10100363454148       -8.67185694062730
H           10.15659613507231       -1.33157624586360       -8.84681719971195
H            8.60547439915056       -1.51697427642149       -6.94732297257762
H            9.04858197320102       -0.26529802340360       -4.87515821610068
H           13.15786661156489        4.24211999534444       -1.06210985689789
H           15.20278882775880        5.59386620799623       -0.83706072804525
H           16.81982161812826        5.68648810059725       -2.68719446798811
H           16.39299756258629        4.42915068816782       -4.75661512133753
H           14.34628127620043        3.07806896966018       -4.97149226427473
H           10.58684418477217        3.30868556718471        0.02878853375177
H            9.00281230571921        0.85054925582482        3.39975900239038
H            8.94082158960126        0.56826104085249        5.84884940234723
H            9.22899880747358        1.45799890767801        8.04153126361910
H            7.93194080649986        2.65143564796697        8.11999830130044
H            9.61491180603660        3.16031557834757        8.27731245370182
H            9.08205298253074        4.79817693377707        6.39725911325109
H            9.16030758737002        6.97192572557796        4.84244449998583
H            9.67695645367205        9.24145878330324        3.99897216256498
H            8.11877362642415        9.37566438495247        3.18227364233171
H            9.61674390446632        9.58356278204820        2.27274324251336
H            9.11618401539048        7.82484137015667        0.66178219910322
H            9.09262898735956        5.41539675835505        0.13383498385483
H            7.54366627176472       -1.00970934476800        1.86650222436515
H            6.61896193982597       -2.71242250518244        3.39188019557423
H            4.85054231007356       -3.38067023769707        4.90714474735716
H            3.78177135776362       -2.18785488913366        5.63925712802977
H            5.40387917458004       -2.43262544933672        6.28919431815347
H            4.22850003302204        0.24234899604459        5.33218475164377
H            3.82739962728227        2.87440860190100        5.13144132261358
H            3.42848809765832        5.22338442284833        5.76216046248046
H            2.58429452157308        5.60480062543910        4.26028554787825
H            4.00660671995022        6.53422999634661        4.73841097796840
H            5.20416439359029        6.06740378697981        2.65740650230570
H            6.63645172028922        4.51088360277939        1.38965841912236
