48
 energy: -9.772756563879 gnorm: 0.000881475879 xtb: 6.5.0 (97a52f5)
C            0.90373474821968        0.04691757642068        0.23099094898680
C            2.39000829504926        0.06777162666356        0.15301705319695
C            3.09863804139010        1.26128175453433        0.39826373885683
C            4.46829864501421        1.30862159521164        0.35116447478860
C            5.15799999128898        0.13448825901617        0.06036644148292
C            4.48048574761172       -1.06112691961006       -0.17775252175794
C            3.08100757189670       -1.09159723303161       -0.12756147567787
N            5.40149422115308       -2.03947416779404       -0.43233785251974
N            6.56391302680232       -1.53514126115275       -0.37283343755020
N            6.49591853953703       -0.21985248539038       -0.07271141519848
C            7.62047611112175        0.65437384533403        0.04818273584131
C            8.59397891509697        0.86045652366071       -0.91765637676376
C            8.71131707666667        0.27778509795037       -2.18101768018946
N            8.88577431485093       -0.14976531892800       -3.24645166232827
C            9.47867140378645        1.84655568628068       -0.39260537329467
C           10.63023196139676        2.47436994495863       -0.91616231917735
N           11.08863874730106        2.12740165919809       -2.16844736440322
N           11.24280939638528        3.39182380257601       -0.18138081210713
C           10.70674871575734        3.64274352383819        1.01488175820105
N            9.65947811708313        3.13439866501948        1.61476644908457
C            9.03682734252762        2.21384908353281        0.87474198705148
N            7.90283789762040        1.45432249233483        1.14252754733011
C            7.05624364055521        1.58863421768497        2.33669098066740
C            7.86223225988913        1.63683413126998        3.65032150455526
C            7.20223348225749        2.77465900389886        4.44614747845045
O            6.24866835650852        2.30112569068327        5.38234610919905
C            6.52992057996924        3.64762607822497        3.35290351412510
C            7.40856394835187        4.82233469567704        2.91930745382564
O            7.61542493111702        5.76383688465381        3.94473329999125
O            6.22841699646643        2.76723449395966        2.25436360868716
H            0.48995823688572        1.05448112876853        0.18028376923625
H            0.57273037170068       -0.40644668290296        1.16594452320518
H            0.47842142346963       -0.52698806365712       -0.59303731673544
H            2.54532823045084        2.15363070250523        0.63484791114996
H            5.01137017823053        2.21264184049908        0.56106349169463
H            2.56071972415469       -2.01394210747408       -0.30744990108593
H           10.60685386399133        1.46518491570367       -2.75699382304713
H           11.87316858898673        2.57797216757864       -2.59742045580813
H           11.23058965316437        4.39628980903553        1.58865071557093
H            6.36275742512336        0.73657891968287        2.34811180262172
H            8.91248578708811        1.85047910903574        3.43447411626443
H            7.81895077858492        0.69425525606168        4.20368315997383
H            7.94149005396661        3.36415205772731        5.01166749585337
H            5.54479724456691        1.80975488055227        4.91941250179482
H            5.56482811236273        4.01762169543407        3.72604665820650
H            6.99159641182542        5.32190955536033        2.03637633330226
H            8.40219171517618        4.45729082598787        2.64382904859128
H            6.77225917760120        6.16148504342446        4.23473117586210
