86
 energy: -17.101349627115 gnorm: 0.000938916024 xtb: 6.5.0 (97a52f5)
C            1.00302305128124        0.04201465350766       -0.14394373687687
C            2.45667456393951        0.30035583524996       -0.56028698023002
C            2.51550348391707        1.46733543913001       -1.55104476327459
C            3.29635909329817        0.62387736406463        0.67921303984833
N            2.99632910564966       -0.91234702899481       -1.22274867521991
C            4.28299297282409       -0.95396727284125       -1.73613006226796
O            5.11692960139070       -0.09644458241962       -1.48248844801963
C            4.60765667463040       -2.06099695699933       -2.68030879820931
C            3.89674803640687       -2.08678802819259       -3.86553742078694
C            4.34992678433647       -2.80481468380421       -4.95352566020664
C            5.51025902197615       -3.55017845188335       -4.87913633682479
C            6.14853671347547       -3.96060317315446       -6.16157760255065
O            7.31852121296402       -3.68301628155317       -6.38118357395304
N            5.36106930108034       -4.62279015908631       -7.08757083050511
C            5.81678812441295       -4.88120003985562       -8.47516164547177
C            7.08671283845853       -5.73731526973900       -8.44438081969810
C            4.71286617785408       -5.62461994493275       -9.23725310160765
C            6.10598495584750       -3.53862131326023       -9.15327332057833
C            6.16990585242753       -3.70604790639893       -3.62153467879502
C            5.74188594711700       -2.91103480577467       -2.52228067094198
C            6.61568186089102       -2.85514710812050       -1.36641884971853
C            6.20632922117371       -2.44911774432569       -0.02797140458114
C            4.89735668154080       -2.66329552565003        0.43735990621329
C            4.54637130205551       -2.36067073654703        1.72205973304872
C            5.49266594544452       -1.82783267599197        2.59309997264258
Cl           5.04076495910286       -1.39520538633977        4.19987763374692
C            6.79145196235535       -1.64131556367332        2.17470964415614
C            7.18395878411658       -1.96634829694087        0.87455526834080
C            8.56575831296949       -1.83288397676790        0.42456720552721
C            9.50737402109476       -1.08631191152423        1.13650694720605
C           10.79148290891968       -0.92572027445521        0.66556679755021
Cl          11.92604546168938        0.00006207218068        1.57677505415008
C           11.16904521964240       -1.49526236908572       -0.54725560787133
C           10.26954015861842       -2.23672564997937       -1.26040235081394
C            8.96723854749060       -2.46149220631240       -0.77837671489175
C            7.98061661878920       -3.21204820715448       -1.55190988377463
C            8.27933346440240       -4.29014852145976       -2.47604093271865
C            9.44855563876443       -5.14958374624973       -2.33641178870701
C           10.32336339050436       -5.05726339402936       -1.23612501554408
C           11.46453529922109       -5.80447761567233       -1.15521747224342
C           11.77110399763927       -6.71003267934181       -2.16400373575335
Cl          13.22874684385629       -7.62974599031387       -2.09485642315936
C           10.89038349072285       -6.89913389458746       -3.20382561642128
C            9.70138697991814       -6.16601606421730       -3.29289685541135
C            8.64821637442084       -6.54536566481307       -4.22258041678426
C            8.74734633712504       -7.68947062710651       -5.02202783344295
C            7.65994820408489       -8.17472513929732       -5.71266837912623
Cl           7.83213766880918       -9.56403530453547       -6.71855417961612
C            6.42485120507596       -7.54703003483178       -5.59375461286670
C            6.31272659325223       -6.40821112101004       -4.84888616810306
C            7.42330080102503       -5.83839974733946       -4.19749200376199
C            7.30723762988659       -4.60109031559824       -3.44212150761028
H            0.58083426428145        0.91020937511205        0.36019012719897
H            0.94411426263132       -0.80669743233799        0.53572954371745
H            0.38413421641980       -0.17865411514804       -1.01229639265739
H            2.12469572914858        2.38221314409574       -1.10772151626872
H            1.93329391937477        1.24208878352128       -2.44320465407024
H            3.54417963208322        1.64793965585589       -1.85977157968543
H            2.96399565478686        1.54756423188104        1.15085728638117
H            4.34516159352754        0.73388467691451        0.40806649935691
H            3.22237633975957       -0.17583349173150        1.41294688331916
H            2.28582705272552       -1.55213278970951       -1.57656908556957
H            3.04798987541157       -1.43332565771969       -3.97479876495215
H            3.85814503485721       -2.69935124789040       -5.90531660227450
H            4.36547907075369       -4.76505138645319       -6.91988964391345
H            6.88513641528610       -6.70875159044875       -7.99803957649392
H            7.85798135327100       -5.25031500620082       -7.84995303668595
H            7.47711660279050       -5.90006442484479       -9.44798123591275
H            4.47614299763268       -6.56716989032686       -8.74594216985713
H            5.02156850397071       -5.84222371781210      -10.25881916787934
H            3.80279481972203       -5.02808693214194       -9.27851114154715
H            6.87950076973361       -3.00028888636139       -8.60756327181692
H            5.21239272061158       -2.91664561100768       -9.16709719059395
H            6.44335887758472       -3.67897972071645      -10.17931250642978
H            4.17127158949219       -3.08985331853205       -0.23223731810628
H            3.54487413039945       -2.53196806337606        2.07851124394803
H            7.50561750886805       -1.26907349076567        2.88516767713411
H            9.23646414256432       -0.59219248549296        2.05067030301239
H           12.16956082348314       -1.33607632257429       -0.91167237240198
H           10.54949117823221       -2.65203866369581       -2.21297644830773
H           10.07449489317008       -4.40516658078442       -0.41991943896066
H           12.13489038531372       -5.70749302007287       -0.31814256554827
H           11.13218745555008       -7.64849374721175       -3.93364281306716
H            9.66700510280953       -8.23943476810316       -5.08741740476536
H            5.57247394778111       -7.96512292996399       -6.10176673000573
H            5.35160973809800       -5.93635654791484       -4.74954325978956
