34
 energy: -6.782239261526 gnorm: 0.000356515138 xtb: 6.5.0 (97a52f5)
C            1.03389017471689       -0.09575837318544        0.02853041160292
C            2.52447478743598       -0.08082594563011        0.02456032507216
C            3.20387791841623        1.13931383828604        0.02261113873135
C            4.57043180227984        1.19037920806039        0.01843444012290
C            5.32796482471029        0.01797522352539        0.01597977597366
C            4.66641010925885       -1.22572502680142        0.01814793939621
N            5.34781113059425       -2.41264529406899        0.01612979081071
C            6.65950907361829       -2.36970971860642        0.01166552624845
C            7.38218319359347       -3.62692816762813        0.00918728812760
O            6.81265448196381       -4.70618476446590        0.01179552906931
N            8.76767728797869       -3.52638388025924        0.00356957534173
C            9.55144130901089       -4.73869834121802       -0.00039731636213
C            9.43640285782037       -2.29672646827061        0.00126853630889
O           10.66035277155065       -2.30070246302567       -0.00315650891768
N            8.74035992684234       -1.11947265539801        0.00387969694398
C            7.42076847483265       -1.16483182837183        0.00871408459896
N            6.71880856120691        0.03232744481396        0.01108462941409
C            7.46589550509537        1.28541893601552        0.00691081750501
C            3.25268635040637       -1.26180812706661        0.02239201625111
C            2.56825384619780       -2.58282797050147        0.02437293852692
H            0.62671722395636        0.91555415845185        0.03139600041333
H            0.65131817973283       -0.60636999747638        0.91247073478586
H            0.64668089616080       -0.60325932774579       -0.85519141871932
H            2.63534365518343        2.05346868802134        0.02439991558413
H            5.06873964310562        2.14319634904804        0.01698412351113
H            8.89300704298430       -5.60627014849659        0.00230114052449
H           10.18727974130009       -4.76495934339075        0.88262481378378
H           10.17909442986012       -4.76430560636287       -0.88927446241643
H            8.53407047782753        1.07921026417614        0.00321178861863
H            7.23015759275037        1.86615858266340        0.89633555120434
H            7.22356065767994        1.86395797659926       -0.88218396626253
H            3.29558755036093       -3.39537118243567        0.02174906167741
H            1.93943158785654       -2.69941142451234       -0.85847609706530
H            1.94536693371119       -2.69983461474308        0.91136217959433
