24
 energy: -4.651050679520 gnorm: 0.000556580381 xtb: 6.5.0 (97a52f5)
C            0.83355705615591        0.05643438912912        0.09467172857117
C            2.32309901076814        0.06945227671789        0.06036660799980
C            3.03385918629530        1.28684598093972        0.06032899226806
C            4.39571306353944        1.30836877770269        0.03079734403840
C            5.13556562851922        0.10486978582772       -0.00111979426927
C            6.54902701385648        0.08884939527171       -0.04014772158356
C            7.24828452017055       -1.08802254429854       -0.07258767097132
C            8.73743040658005       -1.09797383815826       -0.12799469001769
C            6.53740152717190       -2.30428518370959       -0.07152835602094
C            5.17583059473150       -2.32644766363205       -0.03489929153070
C            4.43629036436071       -1.12295407003943        0.00076994227938
C            3.02277734428101       -1.10638630011683        0.03310647538853
H            0.42488734581450        1.06765459477826        0.07538894455820
H            0.47028399719369       -0.43283427612600        0.99960156911145
H            0.42997272994840       -0.48197081019924       -0.76407469021124
H            2.48044313395118        2.21001686105465        0.08438898042142
H            4.92641187392485        2.24486250981150        0.02963697177403
H            7.08009156741726        1.02370673988954       -0.04740477763831
H            9.14879108111784       -0.09789713439152        0.01552136199686
H            9.08702965933084       -1.46779539215970       -1.09299567489759
H            9.15150799250677       -1.74234084273100        0.64895490049581
H            7.09304938496641       -3.22600885104406       -0.10137394940625
H            4.64518350217931       -3.26294444319084       -0.03583194663782
H            2.48912201521873       -2.03991996132589        0.03327474428150
