32
 energy: -6.639350798084 gnorm: 0.000613000108 xtb: 6.5.0 (97a52f5)
C            0.95595129089513       -0.00100278097184       -0.00698971243611
C            2.44603131126273       -0.04646908677628       -0.00738963050552
C            3.09820291302931       -1.27120677998022       -0.00735889084024
C            4.47350352106434       -1.35839679893899       -0.00758223147910
C            5.25976647534172       -0.20812534003617       -0.00772999711145
C            6.68733493191995       -0.26570940986050       -0.00791071037898
C            7.43580906650937        0.85789613130953       -0.00765184780304
C            6.83897612956012        2.16333326319355       -0.00710309054291
C            7.59426771703495        3.35645957087954       -0.00610383144434
C            9.08693928361512        3.38143974147531       -0.00393922169801
C            6.93154161262294        4.57531834838901       -0.00697765745367
C            5.55694130907985        4.65867033809792       -0.00793848320876
C            4.77667003412923        3.50576452486482       -0.00797780339462
C            3.34771357145531        3.56192735558634       -0.00819219675020
C            2.60220919669388        2.43691548254802       -0.00798248573582
C            3.20803708115053        1.13828798571748       -0.00770227641753
C            4.62536152551497        1.05573483314286       -0.00773883655816
C            5.41940132381718        2.24479308018983       -0.00764543007640
H            0.52692957205251       -1.00379892954793       -0.00657543156298
H            0.58100592269973        0.51643242325944       -0.89105525974490
H            0.58151626278365        0.51692335998180        0.87700747244832
H            2.50987779314445       -2.17295419476003       -0.00714776230534
H            4.95491072128308       -2.32122936168732       -0.00758988050812
H            7.16063052385311       -1.23256277685134       -0.00836585787937
H            8.50604461320859        0.76583761740654       -0.00831588593060
H            9.53059149712398        2.38818360259508        0.00113208766205
H            9.45996403066261        3.90864744620325        0.87539470040809
H            9.46274609407666        3.90133029192374       -0.88641829026284
H            7.51739745721877        5.47901390954820       -0.00659698890779
H            5.07215925722150        5.61981321472846       -0.00840580053488
H            2.87226248012051        4.52760904832539       -0.00842601558502
H            1.52906547985422        2.50909389004453       -0.00804275346176
