70
 energy: -14.250537490176 gnorm: 0.006402972371 xtb: 6.5.0 (97a52f5)
C            2.87086427195336       -1.30382398008304       -3.97058602107961
C            3.51851387559019       -0.09814111121657       -4.55478688428878
C            3.48357956153247        0.07241541196618       -5.94416687987141
C            4.07139536242927        1.15289711134375       -6.51907730947990
C            4.70937728960394        2.08527644188617       -5.68886427815780
C            5.34686207490232        3.24243436576364       -6.20313894909317
C            5.96962566695195        4.13953674018617       -5.37728910377722
C            5.97090227089322        3.90986348111613       -4.00347984160195
C            5.35319794647213        2.78847983161104       -3.46825757502246
C            4.70080813769661        1.83229195823999       -4.29514087068165
N            4.11619637040325        0.74618415421085       -3.73707545678363
N            5.49870982943946        2.80290468364506       -2.07887468476945
C            6.20743379233292        3.87025339920910       -1.62833299278818
C            6.55453609758022        4.10657472856974       -0.31278905953313
C            6.21308531850138        3.27813711297437        0.75082578641187
C            5.44137245569387        2.06456735666472        0.98292818100720
O            4.77615088094602        1.29399129580323        0.29615032057530
C            5.79398293306737        2.09588579668385        2.39355861395300
C            5.45900832822602        1.20544452375536        3.41184567162052
C            5.92615208589478        1.16153466294260        4.71592276627894
N            5.51797962694829        0.21932010382388        5.61542843292120
C            6.22015152678061        0.26555135948983        6.82323725002148
C            7.15433757765887        1.28810802349574        6.77296742730204
C            8.01476013106734        1.52217299189321        7.84543649247943
C            7.93420637958658        0.72252268567891        8.95345698037583
C            6.98698200043003       -0.33055943127378        9.03566562402932
C            6.89127108338914       -1.16313430805181       10.15884736979668
C            5.94794120066988       -2.14129771875683       10.15837779475339
C            5.09567811237293       -2.30591681347505        9.05918155942400
C            4.07799664079759       -3.39258895125958        9.10431956894091
N            5.16313243475191       -1.56071842326565        7.97392762614631
C            6.09667857380720       -0.57877710217102        7.96151168263705
C            7.01599035496925        1.99364464307674        5.42067315711422
C            8.34627795926134        1.92924952997795        4.65732643807154
C            6.54394421354557        3.43693452154164        5.64452427837000
C            6.55595636360563        3.31818376696339        2.16058418247866
O            7.21669654822630        4.11353370136648        2.82038079999115
C            6.57611008588971        4.71918924134180       -2.85311970361027
C            8.09881382984424        4.82490152613806       -3.00414112802447
C            5.92579109457593        6.10560620203422       -2.76497458314309
H            1.86982987536583       -1.44688052758447       -4.37645496284925
H            2.78295761611248       -1.20322951329416       -2.88967675194656
H            3.45794195555644       -2.19708429866969       -4.17961671714070
H            2.98636184018464       -0.66476301236261       -6.55171634737961
H            4.05271348070337        1.30116816405908       -7.58604831656020
H            5.33483938791579        3.40974099449685       -7.26648729136652
H            6.45417082427495        5.01503737106585       -5.77268875031816
H            5.12532268435587        2.09547199772449       -1.44299807565056
H            7.14939142860523        4.97401492735220       -0.09195897332163
H            4.77103566084509        0.42716369364516        3.13257218466698
H            4.81835977551895       -0.49545885788610        5.43243550296383
H            8.73343919128257        2.32153374922493        7.78927168302339
H            8.59841411088946        0.88812518036690        9.78828870971680
H            7.55385648057975       -1.02244665789875       10.99675122755151
H            5.84661198734295       -2.79829753887721       11.00522578516618
H            3.54884046680679       -3.39458730508782       10.05776988486416
H            4.54610998688972       -4.36833561129042        8.96922465302724
H            3.34139705125317       -3.25903900067064        8.31227409402055
H            8.67831912684207        0.89706837209870        4.55099613854056
H            9.12453238435042        2.48123331890441        5.18433778897327
H            8.24862634842338        2.35439193557442        3.66150594263692
H            5.61141318017398        3.45100699386862        6.20852980058655
H            6.36862952736547        3.94376452834975        4.69810011393852
H            7.28754529130994        4.00664593740821        6.20247992146589
H            8.54321378716879        3.83630452581090       -3.07970900211746
H            8.54301000213049        5.32994378167166       -2.14975257779584
H            8.36263906714671        5.38171115697202       -3.89974730120686
H            4.84591776286829        6.01454467607863       -2.65529660869782
H            6.12639134242462        6.68690309731385       -3.66366315518642
H            6.30735754909956        6.66074482795685       -1.90924136689630
