60
 energy: -12.917643406329 gnorm: 0.000898588138 xtb: 6.5.0 (97a52f5)
C            3.41793676052303        0.69357244889882       -0.31792024862961
C            2.01575007022733        0.31971116185110        0.01629422239994
C            1.76119576722177       -0.55301249366625        1.09698877901744
C            0.49048442109063       -0.91266162926563        1.45826295940635
C           -0.59265632627381       -0.39307973734674        0.73207046276593
N           -1.93426449257010       -0.58244074991633        0.87670024091705
C           -2.51002638254189        0.14396505855147       -0.07065872519567
C           -3.95533969113803        0.22040874878495       -0.25675768332886
C           -4.79573737131936       -0.47482923757235        0.60220790862468
C           -6.17538253442783       -0.42939693015301        0.45750554191397
C           -7.02792364880668       -1.17658040565745        1.37598272807020
N           -6.56291456402134       -1.88107792290761        2.39766721413624
C           -7.65404878677185       -2.42967249838519        3.00237924354064
C           -7.75632927474309       -3.26990963104484        4.12223001869418
C           -8.99662373852399       -3.68987900872098        4.52220155552740
C          -10.17450266066466       -3.30209307149505        3.84625250822379
C          -11.49554685820926       -3.81227930812524        4.30666509837552
C          -10.08829373550538       -2.48706540865833        2.74089451486594
C           -8.83021017333818       -2.04391902321099        2.31631010247256
N           -8.41571851795744       -1.23862876065339        1.28235060675023
C           -6.71239000013884        0.33390900860524       -0.57080153125066
C           -5.89674808851156        1.03900063483474       -1.44606317467453
C           -6.49937591879043        1.82849050718844       -2.51545477192827
N           -7.80829335251652        1.96677230944439       -2.67100659376013
C           -7.97519705365434        2.75792945822627       -3.76780729776919
C           -9.14267064439037        3.22563015689591       -4.39086724946784
C           -9.02656078691996        4.01177584335119       -5.50581879445708
C           -7.77116624381360        4.36935669314002       -6.04448392304040
C           -7.70656799214168        5.20492863083260       -7.27549125465055
C           -6.61842043396603        3.91303516785769       -5.44678087285561
C           -6.71396505593113        3.11006533098842       -4.30400659722131
N           -5.77954768670535        2.51254686449748       -3.49179157678316
C           -4.51864020401601        0.97452182909551       -1.27900823733628
N           -1.57848105279677        0.82341237716646       -0.85121467236159
C           -0.34442366926934        0.48797947672937       -0.34726285550749
C            0.96302124330888        0.84335942655669       -0.69891157011208
H            4.07899662280661       -0.17164937676955       -0.25559848474924
H            3.79004203079259        1.45284855490569        0.37089032253623
H            3.49039986389200        1.09366258878945       -1.32985803968801
H            2.60025382398988       -0.94218817124643        1.64766607796631
H            0.30587699741834       -1.57866664757730        2.28191936353986
H           -4.36907085109140       -1.06141022842341        1.39423310135369
H           -6.86494585148772       -3.56969519262981        4.64334217732013
H           -9.08772691775265       -4.33763878732787        5.37703457633230
H          -11.53481950001780       -3.87417269847417        5.39475413862575
H          -11.68654318207609       -4.80805943334916        3.90520131262670
H          -12.30565487607565       -3.15798869464654        3.98284878537734
H          -10.96980391120369       -2.19221867939901        2.20259151663473
H           -9.01924281618349       -0.80758890569238        0.58394226864729
H           -7.77641181024896        0.38729710528496       -0.69927376097981
H          -10.10247655535930        2.95878895638691       -3.98638390760055
H           -9.91429167101936        4.37188033063568       -5.99670539886072
H           -8.42924985490354        6.02062069672620       -7.23311028428847
H           -7.92525073816785        4.60635709611272       -8.16049366707145
H           -6.71716967344363        5.64512687559355       -7.40418824738628
H           -5.65324727723183        4.16479594182521       -5.84518229600788
H           -4.76980140582284        2.55131420524653       -3.62210023074124
H           -3.88022776693357        1.51690154226761       -1.94827705899847
H           -1.74881451932590        1.44614385579292       -1.63907157186455
H            1.13276851744888        1.51791374925349       -1.51737676808724
