36
 energy: -7.661223634181 gnorm: 0.000834062362 xtb: 6.5.0 (97a52f5)
C            3.37443341844177        0.64732115941873       -0.07513827453240
C            1.95707537344056        0.19176100080576       -0.08612693408578
C            1.64702484819348       -1.17882030568646       -0.23137433761729
C            0.35642190920184       -1.63401129669926       -0.24741857124830
C           -0.68931087133922       -0.70739136302833       -0.11501231180702
N           -2.03603028521374       -0.89053789755457       -0.08707416496119
C           -2.56674740110644        0.31253645338654        0.09654267700883
C           -4.01865287672098        0.58710944021323        0.13617834384459
C           -4.59128372932552        1.23252987437973       -0.95186386888791
C           -5.95052095882754        1.45656173643027       -1.01345568707992
C           -6.76311945746532        1.03337128491009        0.00666564364131
C           -6.24138465714460        0.38981873485415        1.13449519637668
N           -7.13256216428766       -0.01268859601797        2.10751106016972
C           -6.63749684076745       -0.59448054535182        3.15568633715262
C           -7.56035325925017       -1.05304479146147        4.22348827508023
N           -5.29397101381826       -0.79510912855092        3.34205636734897
C           -4.33088160228778       -0.41251585643239        2.43180397530264
O           -3.13868789092759       -0.55859493177968        2.66973664250505
C           -4.84935641351407        0.18460556518060        1.21061109248702
N           -1.59458764951466        1.30906109475285        0.13569164148803
C           -0.38575380728416        0.66707436699366        0.02615787043635
C            0.94146554152441        1.11061116081548        0.04119809727545
H            4.06414123312955       -0.19482067967888       -0.13537572132226
H            3.59809449056097        1.19550547357856        0.84050530460427
H            3.57613301680706        1.30488147046902       -0.92119264864108
H            2.45630538847450       -1.88143408526838       -0.33054786135549
H            0.12803368404452       -2.67920158015841       -0.35337000504850
H           -3.95635229062670        1.54241345879992       -1.76383244431265
H           -6.37528027250270        1.95407960489876       -1.86979967328362
H           -7.82597829440747        1.19300165212869       -0.04270717605800
H           -8.59485021655281       -0.85205651885569        3.94727523586384
H           -7.35462423655940       -0.53741125425631        5.16106602857739
H           -7.45731766274641       -2.12495461829535        4.39015946995584
H           -4.96653177936740       -1.22456726585442        4.19586305587490
H           -1.74253175160776        2.30362794130107        0.29856340725891
H            1.15684847934722        2.15707924161353        0.15085395798915
