35
 energy: -7.419426202490 gnorm: 0.000789017247 xtb: 6.5.0 (97a52f5)
C            0.90723535655038        0.23944689906827       -0.29443682785182
C            2.39420331633332        0.18248710098462       -0.32707932329007
C            3.14659690996545        1.34017227134803       -0.62346231815041
C            4.51232217033382        1.32138790147380       -0.66951789870200
C            5.18124552905451        0.11403710035192       -0.41743900571910
N            6.50191144646489       -0.17256421743443       -0.40117350612774
C            6.57804613201752       -1.45805802232802       -0.09480475975455
C            7.86564887892890       -2.19013464046776        0.01813816463038
C            8.37474470815455       -2.79733118969720       -1.12001622427728
C            9.56979447734266       -3.48463734531143       -1.08464968165946
C           10.27476008519562       -3.57707194550127        0.08754340582477
C            9.80668308917241       -2.98752024151809        1.26688860793855
N           10.57906521616443       -3.12785198541432        2.40054555404934
C           10.13607761621393       -2.57735731694562        3.48829478904405
C           10.93402120998781       -2.70895329856528        4.73236821222055
N            8.95550690719743       -1.88432725620323        3.55489582638128
C            8.11932983689274       -1.69472941262029        2.47515446643049
O            7.07147260730011       -1.07223966117909        2.58598487198784
C            8.58467066976216       -2.28828946634146        1.23206700939778
O            5.34649732919113       -2.06313113486192        0.06680044150812
C            4.43913250142915       -1.06040382606258       -0.12486472458320
C            3.03892743024151       -1.00577118722894       -0.08486172378399
H            0.54738421513213        1.26716440878095       -0.34732748182955
H            0.52190331746324       -0.19984744689505        0.62611265855058
H            0.48140025190226       -0.30843073853335       -1.13549367600564
H            2.62247821069908        2.26006909129836       -0.81688189198557
H            5.08151724381102        2.20601056529725       -0.89171469802889
H            7.81985534137974       -2.72368121013245       -2.03961258660192
H            9.95041754052582       -3.94761066109514       -1.98023409473205
H           11.20914047826184       -4.10951535645466        0.12057743437415
H           10.38163750098850       -3.26180479063684        5.49150940528042
H           11.18669050355237       -1.72870318495944        5.13569122796800
H           11.86304556935508       -3.24283697155147        4.53567333047804
H            8.65711112679049       -1.48318597933194        4.43279786517717
H            2.48276527624954       -1.89721685133542        0.13689715184546
