28
 energy: -5.914496828393 gnorm: 0.000377595146 xtb: 6.5.0 (97a52f5)
C            1.03130367433250       -0.05872575122273        0.05380182567808
C            2.52197773644551       -0.08149329244052        0.04966131103582
C            3.23250335862965        1.12944369440758        0.04775414114729
C            4.59310213098946        1.15171486287148        0.04356613961939
C            5.33920272507328       -0.04073618319776        0.04089894529844
N            6.68152250079183        0.03149915725267        0.03635416001552
C            7.29149677367509       -1.13426533817720        0.03421277188320
N            8.68073274738520       -1.15523348956661        0.02933549502430
C            9.44147981104598       -2.30932480907905        0.02651925417538
O           10.65793413604029       -2.27071118063444        0.02229406549765
N            8.75429378852193       -3.50884658541736        0.02894702586190
C            7.37467275411222       -3.61368024775960        0.03426006025589
O            6.82296025004074       -4.69876890356954        0.03682018867698
C            6.59698429516399       -2.36944837105038        0.03671966441659
N            5.28909968768248       -2.45545723966362        0.04104206650793
C            4.64129257410512       -1.27354783975349        0.04301960313515
C            3.21849914807638       -1.27436997270827        0.04741237748290
C            2.50724923434912       -2.58105601708387        0.04947954538305
H            0.64994048433569        0.96272046331330        0.05658680867735
H            0.63593764893060       -0.55871036700386        0.93833745645200
H            0.63115895544437       -0.55571712306881       -0.83027913798141
H            2.68364011368722        2.05558866736537        0.04966473885043
H            5.12740205139025        2.08610474276338        0.04210835638044
H            9.15939064831320       -0.26993134681362        0.02766997544455
H            9.28731321819726       -4.35833125271961        0.02717532060004
H            3.21882935166880       -3.40760138121271        0.04679796751628
H            1.87669455721579       -2.68538001013060       -0.83379230940632
H            1.88280564435606       -2.68589488570013        0.93702218237118
