31
 energy: -6.333980461709 gnorm: 0.000946655415 xtb: 6.5.0 (97a52f5)
C            0.94590711614379       -0.05097889737489       -0.05845149022080
C            2.43470853953757       -0.03901678475976       -0.06194837219644
C            3.14538217521372        1.16277269492799       -0.06336508681342
C            4.51440676885019        1.16764618261735       -0.06722796372882
C            5.24422580697430       -0.02654447782328       -0.06991987343715
N            6.61092144851615        0.03544210343567       -0.07418738318349
C            7.26908892041578       -1.09990239586059       -0.07643963946774
C            8.71845190483388       -1.04822283819030       -0.08127931740040
O            9.33447030991703        0.00464071010135       -0.08317011222710
N            9.36705132145998       -2.27622854756370       -0.08403120845428
C           10.81053652503380       -2.29778066290770       -0.09105168220089
C            8.67900468503181       -3.49437749356275       -0.08194391478814
O            9.33110158260732       -4.52979731812731       -0.08492492679961
N            7.31256637583603       -3.52774441447648       -0.07687446797005
C            6.65117070045089       -2.38541006997773       -0.07467831484963
N            5.26372656670847       -2.42950775366642       -0.07028966148171
C            4.60019308291146       -3.72852407834196       -0.06673162677257
C            4.53668976941139       -1.24439888467110       -0.06812983852740
C            3.13797313160279       -1.22188149522115       -0.06425049328136
H            0.53950658412305        0.96067284158065       -0.05535553335935
H            0.56554410644707       -0.56574898355460        0.82440473536372
H            0.56144031813498       -0.56198985279440       -0.94171726505759
H            2.60394788468234        2.09306306157202       -0.06142856421400
H            5.05761286729388        2.09655506903088       -0.06836415200651
H           11.19539184670617       -1.27887512939084       -0.09147847616213
H           11.16275589228778       -2.81809875909477       -0.97983467736288
H           11.17169568517606       -2.82082387412622        0.79253086477130
H            5.34335622921284       -4.52271692680650       -0.06851921841606
H            3.97948514960134       -3.83471685540747       -0.95405719085364
H            3.98576933509187       -3.83285341347516        0.82517597684537
H            2.59352736978625       -2.14768275609082       -0.06327112574723
