35
 energy: -7.399350979488 gnorm: 0.000758552606 xtb: 6.5.0 (97a52f5)
C            1.10280073201251        0.68937752823268       -0.28722385937731
C            2.55466591842408        0.40436170810986       -0.12342313032428
C            3.47823882637914        1.45395269312088        0.02975889171355
C            4.80522594933713        1.20216747207841        0.19628666083385
C            5.31178117781162       -0.11787088837256        0.22661433860212
N            6.63524517275412       -0.29810592778875        0.38365246777985
C            6.95108943668311       -1.57774583586699        0.39508297978989
C            6.04626581287177       -2.64176514345925        0.26691674306066
N            4.73899949512982       -2.49489634743371        0.10583650575085
C            4.37799124027679       -1.20125297020147        0.08513473635545
C            3.00915504853230       -0.88447467137738       -0.08572846782945
C            6.84620869026442       -3.84029582561818        0.33504803738711
C            6.33654287220564       -5.20153470017464        0.23942876928513
C            4.97863463831275       -5.45525121966617        0.05992115950397
C            4.50634840092927       -6.74415081137609       -0.03097969290196
C            5.38297749891413       -7.80767808592889        0.05582949570099
C            6.73297064865199       -7.57617943007478        0.23448469286325
C            7.20622410250452       -6.28614180394721        0.32507924121137
N            8.12723256912136       -3.53180035986736        0.48969426605384
N            8.19821943446654       -2.20317824370539        0.52851506363742
C            9.44413897983930       -1.46315129073068        0.66916366866577
H            0.93631558545818        1.71057693188394       -0.63142380387572
H            0.57493258488559        0.56295975031841        0.65862513759061
H            0.65258675304803        0.01689660779493       -1.01812367387845
H            3.11953915451585        2.46876529019272        0.01443848882990
H            5.50262136371178        2.01344549228198        0.30898344311324
H            2.31111741626553       -1.69522980485893       -0.18784893687746
H            4.30220385707896       -4.62363287576152       -0.00692731013712
H            3.45299388710298       -6.92397036193031       -0.17047873598525
H            5.01398873503093       -8.81778329329284       -0.01532638868692
H            7.41681872098375       -8.40619607701300        0.30268328749779
H            8.25643332420072       -6.09807835221746        0.46336508092711
H            9.23727046055940       -0.42900080755487        0.93387165563129
H            9.99371239500447       -1.48595605959433       -0.26863703070482
H           10.05393911673715       -1.91335228620605        1.44847621879294
