51
 energy: -10.669122648539 gnorm: 0.000476407641 xtb: 6.5.0 (97a52f5)
C            1.23455641461302        0.67446699713243       -0.32977697169708
C            2.71202776453184        0.50431924593466       -0.27100366911549
C            3.28953413106642       -0.77673427935376       -0.23673096235599
C            4.63993557080223       -0.93333266631336       -0.17360411017408
C            5.50608093322839        0.18035559039273       -0.13632570734812
N            6.82714546904755       -0.02242664697131       -0.06197045593378
C            7.56469933133154        1.08058602800333       -0.01495946532306
C            8.98477397949325        0.93249858683137        0.09621486039528
C            9.81855644272961        2.02213556733569        0.17170261220997
C            9.26079128285468        3.35146946173293        0.12100275619963
C           10.09249613488188        4.47028493071931        0.18916815088703
C            9.56983656735684        5.73529889800767        0.14395532764033
C            8.19765417798980        5.91712194664359        0.02991215118996
C            7.36333244228937        4.83301544454884       -0.03659584830153
C            7.87225896794318        3.53174581247898        0.00686868100260
C            6.99225617979968        2.38457851388401       -0.05495465914605
N            5.68949156382080        2.59137666492928       -0.13474894040120
C            4.93792493145424        1.47910812783017       -0.17008774008688
C            3.53376062860736        1.59815859018359       -0.23745006548127
O           11.20056240025699        1.91798488797943        0.32443703087778
C           11.82427887829934        0.70723091371290        0.12176480087459
O           13.00815928314248        0.53808012728957        0.31050483069957
C           11.01260945940033       -0.46532503189969       -0.35856402015313
C            9.57079433524826       -0.44825111603343        0.19209732452955
C            9.49215137959093       -0.97382841114025        1.60939824002186
C           10.09299599369263       -0.28351718291321        2.64851317082490
C           10.00468536140699       -0.74296990588396        3.94404961805922
C            9.31139363155788       -1.90111556351174        4.22289036449967
C            9.22601255933062       -2.40419856467540        5.65930242535290
F           10.44886874907051       -2.81339700899539        6.03975187650092
F            8.81059929678592       -1.39380991574909        6.44336495650941
F            8.35474032370184       -3.42669300874246        5.72000076893886
C            8.71267478432143       -2.59836372189501        3.19496345483792
C            8.80064328307165       -2.13926536093121        1.89863776852089
H            0.72757899394995       -0.28553278726791       -0.43031374582976
H            0.94934672610786        1.29204645635219       -1.18203042722993
H            0.86497270316067        1.15430108676993        0.57705292710916
H            2.64804291809309       -1.64085878889618       -0.25987032035306
H            5.07635090155626       -1.91655398043084       -0.14657631761109
H           11.15450848461509        4.31483096868555        0.27811348036051
H           10.22244876685139        6.59147388730428        0.19692271575328
H            7.79018964876940        6.91428967802875       -0.00471209659343
H            6.29899536560483        4.96635171201248       -0.12222351530212
H            3.10745160418598        2.58457613201197       -0.25865405992318
H           11.51699540536011       -1.38537079221582       -0.04797837708070
H           11.00912126028909       -0.46244692303539       -1.45268425257990
H            8.94825033303888       -1.10217556743361       -0.43997633162397
H           10.62960076210025        0.62387170829757        2.43013977247463
H           10.47023534929569       -0.20571299066294        4.75346817869497
H            8.17320720408668       -3.50210619449980        3.42438465788061
H            8.32379094022117       -2.68333155558318        1.10139915679763
