48
 energy: -9.772363200166 gnorm: 0.000956378928 xtb: 6.5.0 (97a52f5)
C            0.97987211944050       -0.03459007739467       -0.22676926703825
C            2.45067573858729       -0.04626418740321        0.00105663943996
C            3.11859344300914        1.13702543778571        0.37397287606843
C            4.46843270245878        1.16247593114784        0.61286179197690
C            5.19441787796933       -0.02718741405901        0.48265325008542
N            6.51743804896362       -0.30896053990087        0.67992256364099
N            6.70971170610748       -1.54403501427933        0.46899832980850
N            5.55750107394314       -2.15327830600757        0.11444327692670
C            5.42916032525503       -3.56915228502618       -0.02922328134179
C            4.65191132374718       -4.26598960992503       -0.94333173127359
C            3.86165144534979       -3.77878504640251       -1.98580124032101
N            3.18114242639372       -3.45950979141601       -2.87078479354110
C            4.80009297048663       -5.64852711003918       -0.62414932506842
C            4.23304471528886       -6.82073499805461       -1.17176138228258
N            3.37552578615123       -6.72903155481287       -2.24627393454280
N            4.53789916650483       -7.98953687057958       -0.62635665917887
C            5.36689884151075       -7.95330697560570        0.41862738722839
N            5.95200686192736       -6.94784638909007        1.02045038647942
C            5.65875096663320       -5.76959016233306        0.46527825551217
N            6.05300261762735       -4.47980125590751        0.80355569728307
C            6.90497270053872       -4.09651117754970        1.93636632435818
C            6.09725264974287       -3.98086076283699        3.24141782603759
C            7.03310485333379       -4.57121374747875        4.30602212599854
O            7.75987020819751       -3.57514530298226        5.00633798161641
C            7.98164538688649       -5.49857146073360        3.49854380918800
C            7.54275604234221       -6.96289360332364        3.53085044009102
O            7.36070706256697       -7.45657790417960        4.83673500913383
O            8.02021002955627       -4.98415732981579        2.15069101410406
C            4.53830529179602       -1.20366833645686        0.11756885017274
C            3.16430332227870       -1.22019742966219       -0.11605298707586
H            0.64684246588968        0.93701707135249       -0.59317140232806
H            0.44420969879672       -0.24971788340866        0.69853057272616
H            0.69137022248366       -0.78214707046446       -0.96649021999054
H            2.54396837929757        2.04168514363831        0.47436673518646
H            4.97433701288159        2.06705163202284        0.89991829372107
H            3.12034719520940       -5.84673520503124       -2.66332282047013
H            2.93726751290332       -7.53115018273598       -2.65500906584195
H            5.59132201519758       -8.92347203540062        0.84248274112113
H            7.36885383338730       -3.13976091722188        1.66700352896973
H            5.16927641294746       -4.55312034440599        3.15282098126840
H            5.83284192252257       -2.94623560974738        3.47802462596888
H            6.48026519594034       -5.15215825028718        5.06157503450080
H            8.28689102418185       -3.04571801192707        4.37921648582377
H            8.99984090966491       -5.40286502141026        3.90210421747189
H            8.24781363744466       -7.60173792408037        2.98488203386184
H            6.57684040071997       -7.06644535109276        3.03049002539222
H            8.19777946301085       -7.43887039135339        5.33828693909349
H            2.67590499291491       -2.13517637412269       -0.39322793996104
