36
 energy: -7.473641639382 gnorm: 0.000619777805 xtb: 6.5.0 (97a52f5)
C           -3.29927449762366       -0.69061335018549       -0.22155843616573
C           -1.89058980286142       -0.22957181677543       -0.08368496483297
C           -1.61600751875848        1.09348844304528        0.32944915089318
C           -0.33920135161550        1.55216100436157        0.49278519483707
C            0.73522706782367        0.68443944869203        0.24819744959727
O            2.09617461844668        0.87122038902007        0.33054297535398
C            2.68464189636126       -0.32631279566061       -0.02245815513638
C            4.12934662565924       -0.56992006050336       -0.10054992646160
C            4.63250228027914       -1.37855836895342       -1.06054849956985
C            6.02697236920471       -1.60502306925562       -1.17774463398210
C            6.56899881307145       -2.42835279723015       -2.17161530913789
C            7.92837441032023       -2.62197885089920       -2.27777951054492
C            8.50187595877087       -3.49798064009094       -3.33622915626655
C            8.76971775570171       -1.97910520021254       -1.36726591695245
C            8.26186932367618       -1.17015059198819       -0.38638870571372
C            6.88398653934559       -0.96290446869229       -0.26657528514505
O            6.40297830076254       -0.13930883245300        0.73825738515883
C            5.04209978991275        0.06785884439108        0.85920719219354
O            4.58464482990204        0.75852480525892        1.75754714574637
C            1.71566743720407       -1.26522378688834       -0.32948556468334
C            0.47136391201755       -0.64144644383354       -0.15968826211765
C           -0.85084905880286       -1.09399490641603       -0.31834255794762
H           -3.95540787627053        0.13095899550722       -0.51025582360350
H           -3.66514661097015       -1.10016042028098        0.72037094061944
H           -3.38633349545368       -1.46559051592123       -0.98367706704264
H           -2.44491855713993        1.75334693142340        0.51988955844552
H           -0.13871049710701        2.56143236923027        0.80456529081548
H            3.96969638315551       -1.84227006861637       -1.76812198519187
H            5.90763978657496       -2.91579840463028       -2.86492187353154
H            7.72391876435721       -3.89787185792870       -3.98697432355991
H            9.03360610750981       -4.34129901238541       -2.89465931450548
H            9.20421323692407       -2.94347712356298       -3.95926713344611
H            9.83287788320805       -2.12814890997553       -1.44660753083063
H            8.91391551033560       -0.67771999756067        0.31297249119445
H            1.88018962019093       -2.28321851884118       -0.63289887183956
H           -1.03688995411003       -2.10813042118839       -0.62056596664601
