27
 energy: -5.196255407088 gnorm: 0.000547848521 xtb: 6.5.0 (97a52f5)
C           -3.29141767229651       -0.77193936396053       -0.29277154675818
C           -1.88128541924840       -0.30916233378654       -0.17952661274586
C           -1.57450141226433        1.06932936397888       -0.14189818583835
C           -0.29019955329517        1.52253748071564       -0.03014331645794
C            0.76016694262003        0.59567126362370        0.05244478586698
O            2.12428954629615        0.76147495282482        0.16647033058542
C            2.66265517055503       -0.49462562101975        0.20042836166177
C            1.69901290015186       -1.47185434741057        0.12052529250028
C            1.93108733485684       -2.94547896775425        0.07551962185774
C            0.76343365617282       -3.73406666574103        0.58980126115534
O            0.59022968827562       -3.88291481365708        1.78182841578771
N           -0.13374669845613       -4.25571910049332       -0.32202299169599
N           -0.97099204954691       -5.27650794152006        0.10182654540877
C            0.46376149905059       -0.78383414623251        0.01636323225675
C           -0.86483663286647       -1.22422040933097       -0.10227426290361
H           -3.98024879659166        0.06781242853410       -0.38747156338679
H           -3.58197154298969       -1.34437809212064        0.58868556940657
H           -3.42082537966441       -1.41018147025745       -1.16741882670609
H           -2.38266755445040        1.77748677624955       -0.20429781726468
H           -0.06504994422028        2.57337263110600       -0.00488249063903
H            3.72557399884065       -0.68567173884491        0.27546201913409
H            2.81044331027830       -3.19389630263174        0.67630165276194
H            2.16163413889246       -3.24711503386763       -0.94976900263350
H            0.15288412876747       -4.39406643353459       -1.29048144584686
H           -1.45181642642635       -5.04068076882882        0.95390345173601
H           -0.48757156151507       -6.14245892033165        0.28332637774634
H           -1.06955167092718       -2.27675242570886       -0.13060885498812
