35
 energy: -6.887728969422 gnorm: 0.000315564711 xtb: 6.5.0 (97a52f5)
C            0.81156291727394       -0.14594493729803       -0.02205036767231
C            2.28708231451572        0.04820484215238       -0.02615030355818
C            2.84699299005171        1.31908430249516       -0.02800738207600
C            4.21406062490133        1.47862980694624       -0.03195578718466
C            5.06342787097979        0.38290505832301       -0.03425341859429
S            6.78698493975308        0.73649630311883       -0.03891925180724
C            7.52113611554885       -0.86205674624047       -0.04275286251692
C            8.90746208485653       -0.89194278684886       -0.04788228836983
C            9.61406609383306       -2.08243180538553       -0.05144934536215
C           11.11711930984103       -2.13794516830001       -0.05697350349594
C           11.83152469115218       -0.78837165315566       -0.05920795774529
C           13.33439350220554       -0.92306598245319       -0.06528810323867
O           13.83896193831976       -2.02650499194909       -0.06595969713055
O           14.04388733527849        0.23786015257475       -0.06963229228919
C            8.89179832259885       -3.26818264876361       -0.04976552293516
C            7.51763322923669       -3.25408616065740       -0.04456504155459
C            6.80608873417075       -2.06019475328659       -0.04094851963527
C            5.33471351567056       -2.12991791143429       -0.03535860883984
O            4.78463674499670       -3.21698090084334       -0.03310596792431
C            4.51953323219614       -0.90290819428013       -0.03266828006028
C            3.13533185448538       -1.04198285791773       -0.02856424524665
H            0.28478129356587        0.80845529100962       -0.01788087878128
H            0.49741260023854       -0.70429725020327        0.86015055186319
H            0.49192099648153       -0.69965947560577       -0.90519987460272
H            2.20252736337128        2.18108754927413       -0.02631222656200
H            4.64462032113601        2.46680661073113       -0.03326970521833
H            9.43280937638627        0.04675895068326       -0.04900214813744
H           11.44725615724581       -2.71438074116090       -0.92813281969573
H           11.45365385078903       -2.71488984609077        0.81140126720129
H           11.53183763803253       -0.20970045394688        0.81916030721449
H           11.52478377753077       -0.20894333060701       -0.93463445877976
H           13.45749994100741        1.01859437459869       -0.06808167660487
H            9.42204638801432       -4.20507603402992       -0.05253652407817
H            6.96344167802104       -4.17731728315203       -0.04320543746724
H            2.72183025631347       -2.03494132829562       -0.02736762911450
