34
 energy: -7.323503847469 gnorm: 0.000783056605 xtb: 6.5.0 (97a52f5)
C           -1.66273188243945       -1.62696874289373        0.24672796684431
C           -0.45102624662387       -0.79062292825575        0.06942966937756
C            0.77971301468147       -1.36946569001415       -0.16527147764096
C            1.90347891066779       -0.59014603178224       -0.36636384327836
C            1.80991394961255        0.77965747646729       -0.31931431022490
C            0.59399216445722        1.40995131183112       -0.06970747467719
C            0.54367981142640        2.86566086746055        0.02400129254260
N            1.16746268791081        3.75746184443425       -0.84290697645331
C            0.92517411420725        5.07347690788458       -0.46679274862623
O            1.32906845894816        6.08192475548021       -1.01924857826358
N            0.12370763916501        4.99514200051112        0.68545557110933
C           -0.09687988821783        3.64646636948672        0.98578283204732
C           -0.86928719999213        3.57752310789682        2.20399873640085
C           -1.34625210946038        2.51016713226380        2.95994873573212
C           -2.06597785689715        2.78061816670140        4.09997239197007
C           -2.31322104211583        4.09351949078905        4.49659653054382
C           -1.84200415195935        5.15742023864579        3.75962768705214
C           -1.11457486899976        4.89873157147280        2.60854483745432
C           -0.49022192155952        5.82408393854587        1.65043784015498
O           -0.51112833410112        7.03765631607348        1.69670870687519
C           -0.56815020712876        0.61215316940792        0.09421675378723
O           -1.82125295149218        1.16336981495777        0.24871483398705
H           -1.48604154983356       -2.42649709128643        0.96693199162845
H           -1.96445448093174       -2.07671873119345       -0.69959170995132
H           -2.49418533829064       -1.02214025171597        0.61096434245599
H            0.85570511773321       -2.44277647863771       -0.20003836712617
H            2.85574046168399       -1.05876719269302       -0.55322941017726
H            2.68931241605129        1.38567631841562       -0.45245135607378
H            1.71046562771960        3.49811474131492       -1.65812674557457
H           -1.15762260743709        1.50045636311847        2.64104325473519
H           -2.44629447311129        1.96600888516253        4.69406324318678
H           -2.88138561788007        4.27885938529737        5.39336174519686
H           -2.02445133965360        6.17538588798267        4.05694965655341
H           -1.79110030615935        2.12557707686960        0.08390437840936
