60
 energy: -12.560312348456 gnorm: 0.000631309587 xtb: 6.5.0 (97a52f5)
C            2.47384683611892       -3.13508222338446        0.98763524617775
C            3.90421335268364       -3.42757197460974        0.51761418143459
C            4.00300151384442       -4.88363743547607        0.05291704626752
C            4.27656804543565       -2.48294364641315       -0.62901533323378
N            4.84125572618350       -3.20369550304367        1.64482705984783
C            6.20924559563523       -3.38376679052374        1.52249460570354
O            6.72332792623442       -3.88803686915424        0.53369945607868
C            7.06071320410268       -2.89470819697739        2.64241368465482
C            6.92101540171505       -1.56088092029327        3.02183569629167
C            7.81911985713865       -0.95649098011593        3.86229672382178
C            8.94658594537946       -1.64884779915264        4.31088658234360
C            9.93958482315755       -1.01190948144941        5.11431358097159
C           11.05273108614660       -1.67143751332644        5.49918772981947
C           11.28055898079938       -3.02517952799486        5.10454645958600
C           12.43154888230256       -3.71190460703822        5.49547152533775
C           12.62180217951318       -5.02166729101103        5.12457986665306
C           11.69393414232851       -5.66773628913752        4.33314285240901
C           10.55142825102604       -5.01633609719128        3.86338118748350
C           10.31613627924681       -3.68833930016328        4.30507848689197
C            9.11639658865962       -3.00427016492283        3.93754632707779
C            8.10902538505565       -3.67351941880132        3.19138870995289
C            8.25626490565843       -5.11056004872494        2.96903993839262
C            7.11514860247757       -6.00468074028239        2.79383196752900
C            5.82590297811204       -5.63321590229513        3.20668820505402
C            4.76665106868579       -6.49313644109733        3.10919837728719
C            4.95777630027443       -7.77041326261304        2.60588369183507
C            6.21113741047640       -8.18071333743092        2.23614414660017
C            7.32016059929955       -7.32632328705658        2.34060252932538
C            8.66986369281902       -7.77213113277601        2.02557261727592
C            8.91633618159416       -8.98717754978915        1.36752146086219
C           10.18808677724407       -9.37406042424400        1.03808797850802
C           11.26260782236225       -8.54895697402138        1.33404742533401
C           11.05497105763046       -7.36134676355693        1.98140387727716
C            9.76971119206788       -6.96047931930000        2.38537396309089
C            9.53612279989257       -5.68662928886964        3.05860463418654
H            1.75706494150330       -3.29960927153350        0.18392588031317
H            2.37881585412970       -2.10217832457063        1.31897337244260
H            2.20354049036928       -3.78194085137328        1.82086396229414
H            3.35072245845619       -5.07068742096281       -0.79943310200683
H            3.71856936530056       -5.56235912446013        0.85464566475706
H            5.02477223621787       -5.12075205918503       -0.23845236773143
H            3.60950725399145       -2.61354612569990       -1.48049333562891
H            5.29620543053517       -2.67388884961750       -0.95989376779121
H            4.21950302318403       -1.44493236530881       -0.30457839284032
H            4.45479771082033       -2.68326476427096        2.43190164233676
H            6.11048482961805       -0.98839612043298        2.60439830930517
H            7.69236539150615        0.07567336909604        4.13987526168622
H            9.78718513679390        0.01256480454187        5.40699598843888
H           11.79301824830830       -1.17927108562877        6.10591537655784
H           13.16081035546114       -3.20934342640868        6.10731262797098
H           13.49817688537949       -5.55081497988206        5.46216134402757
H           11.82634362385179       -6.71509491692533        4.13053181405765
H            5.67725094018568       -4.65534910000687        3.62853957079644
H            3.78510824190539       -6.18022699010932        3.42566596485627
H            4.12155709046596       -8.44575786028374        2.52415580897715
H            6.34530876436867       -9.18816532310339        1.88723894210736
H            8.09304932383815       -9.62065482895539        1.09165233330214
H           10.35420599194518      -10.30930275170206        0.52857058238201
H           12.25853813989089       -8.83794915177332        1.03994828260769
H           11.88414688069037       -6.69147597919999        2.12632574867694
