28
 energy: -5.443701265821 gnorm: 0.000546845081 xtb: 6.5.0 (97a52f5)
C            2.46470175882902       -0.02167376659606       -0.18369808303435
C            0.97908285358891       -0.01059794440519       -0.07144748207702
C            0.26088267646266       -1.19167340743042        0.05669127355528
C           -1.11416039172792       -1.16945459338887        0.17830945428840
C           -1.78993874217348        0.03098066721096        0.17735622284866
C           -1.09835535644953        1.23320701930988        0.05243728806107
C           -1.82066657639756        2.52881390691867        0.05004431600376
C           -1.55732607286378        3.49097955472053       -0.92162013800782
C           -2.23166910996299        4.69221217604592       -0.91943988783334
C           -3.17763449465056        4.95500372017136        0.05122065705715
C           -3.46478176837211        4.01564981695137        1.03219186808163
C           -4.46890163083839        4.29727493435594        2.09620262398606
C           -2.77904150983245        2.81225983466286        1.02084536849656
C            0.28885251918357        1.19023901323568       -0.07015533179988
H            2.84551100378273       -1.03271337128707       -0.33247055718055
H            2.92440162976734        0.37888743779897        0.72070905528310
H            2.79632775198957        0.58552515478509       -1.02704446060858
H            0.78821282306677       -2.13055439464304        0.06146462998655
H           -1.66052396293374       -2.09379548155351        0.27351741357569
H           -2.86283282543935        0.05060426223056        0.26497083567881
H           -0.82423671625914        3.28059465551761       -1.68158716305323
H           -2.02081100530385        5.42850351171573       -1.67801090728266
H           -3.70099018996268        5.89610278957175        0.05427574829461
H           -5.05100379409062        5.19079536831263        1.86793072873668
H           -3.97995054711296        4.45351931079703        3.05859927797669
H           -5.16634234319702        3.46551846197527        2.20412290308959
H           -2.98357341657214        2.08289484156712        1.78439250855116
H            0.83660743747047        2.11178652144960       -0.15661816267199
