34
 energy: -7.296240462037 gnorm: 0.000834561352 xtb: 6.5.0 (97a52f5)
C            2.38426455566355       -0.04114790737349        0.11125997809823
C            0.89547693882343       -0.01195233770658        0.08057689507326
C            0.15450144220116       -1.18625244400773        0.05699409165929
C           -1.22541409940818       -1.14883190934780        0.01964287886720
C           -1.88401697291437        0.05908952960247        0.01036978641104
C           -1.16963537081081        1.25543807427842        0.04829812248828
C           -1.86946635588370        2.55092910376312        0.05101904595535
C           -1.74397630434007        3.55800267729634       -0.90594430217836
N           -2.54308776862663        4.58720036973378       -0.63854577680641
C           -3.18292208437823        4.26925927322700        0.49309687663063
C           -4.15293053067893        5.04202875652572        1.18231986572746
C           -4.68687817493313        4.56725229836973        2.32818606152294
C           -4.28088748342951        3.30597123565892        2.87753039833102
C           -4.80477761208354        2.83362469870674        4.08953797012843
C           -4.37927646782269        1.64341064299214        4.61993674218639
C           -3.41554358215409        0.89131716501734        3.96165026108348
C           -2.89241238449681        1.33040596604083        2.77239658060005
C           -3.31714668358164        2.52913513998041        2.20371365030005
N           -2.79105865047039        3.01772119144767        0.97773586169754
C            0.22364096529502        1.19747771717652        0.07258852351845
H            2.76251277941974       -1.06333138449324        0.14797011304181
H            2.76475341690546        0.48666396037901        0.98660232800372
H            2.79950927972355        0.43653705530695       -0.77698499364526
H            0.66786525380445       -2.13239006290171        0.06517774578490
H           -1.78775376310138       -2.06791407711699       -0.00314997493560
H           -2.95938005379950        0.09475061517790       -0.02410504422345
H           -1.09989032551066        3.51173121297171       -1.77189008238235
H           -4.44752542596939        5.99375103885471        0.77808559127552
H           -5.42406104722500        5.14419859201542        2.85933123818364
H           -5.54373443178094        3.42320937140076        4.60434063902560
H           -4.78789639005325        1.29254306169880        5.55337835411054
H           -3.07838168529134       -0.03948778390649        4.38767391040796
H           -2.13780165281658        0.75346244374935        2.27269579888793
H            0.78492066972385        2.11440671548268        0.09397086517093
