18
 energy: -3.264436848185 gnorm: 0.000233334645 xtb: 6.5.0 (97a52f5)
C            2.48882129713197        1.07742643742480        0.00682894972699
C            1.20733704875261        0.31698278056939        0.00294526764114
C            1.19505097906095       -1.07038624794164        0.00412405173868
C            0.00072887361880       -1.76145593000294        0.00128110873628
C           -1.19635377661001       -1.07517776472831       -0.00230772702870
C           -1.21417358247576        0.31212742276442       -0.00253907105166
C           -2.49866714315198        1.06747276403807       -0.00770910746726
C           -0.00477291659076        0.99180400392713       -0.00042010231967
H            3.35041883845548        0.40819732609692       -0.00172692217115
H            2.56461557542090        1.70663927327863        0.89504111586977
H            2.56022069427380        1.72331821152199       -0.86970375808596
H            2.12905619236406       -1.60646636774467        0.00724570794179
H            0.00287233828146       -2.83953528843603        0.00190505116703
H           -2.12822524120542       -1.61496554236176       -0.00475272318509
H           -3.35750632689679        0.39509589629029        0.01668624882675
H           -2.58341950592213        1.68381997541598       -0.90408858104468
H           -2.56641001437315        1.72524924740043        0.86024189533811
H           -0.00693333013401        2.06776380248730       -0.00133140463237
