126
 energy: -15.121037743815 gnorm: 0.045099234906 xtb: 6.5.0 (97a52f5)
C            2.07679270612021        0.90292628394912        0.71800943376521
C            0.90210218825468        0.06244319131125        0.35153036951998
C            1.05949966253104       -1.30893679085269        0.25301407395475
C           -0.00760793437552       -2.12555081146586       -0.05354186752724
C           -1.25401445412123       -1.57775468007908       -0.26749621181211
C           -1.45198327442548       -0.21005700066088       -0.18864836982126
C           -2.81436301077315        0.35941805239426       -0.38914067106793
C           -0.36729349106762        0.62757586209168        0.12716818936911
C           -0.57038067381852        2.04147261772741        0.24659787376241
C           -0.99231100100055        2.69187145572009        1.33639981637460
C           -1.19531137296321        4.04072834963608        1.37501018770737
C           -1.57938929088995        4.80354773927145        2.46684023358712
C           -1.80034731213039        4.14589773610446        3.78978854358022
C           -1.71905895211650        6.12717457923853        2.33989047082366
C           -1.99430430681044        7.00121308583600        3.37347389680784
C           -2.80049328798473        8.05392618924120        3.41898206305296
C           -2.95661709109803        8.76552755573731        4.58347548347417
C           -2.35139840082600        8.43907843550767        5.68957151264053
N           -2.57651660884038        9.20269390007333        6.63397558056111
C           -2.02916866721862        9.07315032500063        7.83805450594312
C           -1.21874591308160        8.11508439740564        8.20123250694941
C           -0.52245297436481        7.89945125368952        9.33800735183329
C           -0.46504228461471        8.53792798365026       10.46988261755328
C           -1.19121392355125        9.58191696891753       10.90273291239798
C           -0.95700916590438       10.33785933875527       11.93955524429999
C            0.22249735298011       10.10356544945506       12.45391804944235
C            0.73024739400794       10.67017130760980       13.56617760557199
C            0.07569332656335       11.40524430281557       14.42060903148646
C           -0.39307206885380       10.96823475602178       15.64776105502804
C           -1.22572657845814       11.60236323329023       16.48614835876623
C           -1.72493713003058       12.86656895455764       16.17072942859003
C           -1.60102091728311       10.99908232305748       17.69422166298441
C           -1.21602773248206        9.84498406194626       18.17473200366064
C            2.28266882579556       12.31567243812396       20.52757687762517
C            2.17175439658309       13.23581968407312       19.56547113516159
C            2.28512123884954       13.05086818815779       18.25827947118257
C            2.54454048586051       11.90224829196435       17.60923657806808
C            0.88558065250254       16.34462514097658       12.83795340498356
C           -5.25199403487149       12.76626526114961       16.83608980624771
C           -5.07859951351556       11.93761749843476       17.80447363244748
C           -4.84866231077900       10.63975677711487       17.72564077671925
C           -4.74039163810636        9.88763000791432       16.61574747366485
C           -5.53500557587822       11.70917255202583       21.32723348229349
C           -4.39979240107327       12.03174303699225       21.77319841415258
C           -3.26698242070064       12.20594877046191       21.03931283691684
C           -2.49534719188900       16.95096967122467       17.04040726832180
C           -1.49382728874334       16.23211140688841       16.74697453886250
C           -3.99667216552572       11.78197888141874       13.76694419780234
C           -3.93579631633846       11.82769735888397       12.43440411542921
C           -4.66757514644848       11.09892200282296       11.54233480882295
C           -5.62707835404149       10.20090535402805       11.99218066287142
C           -4.47177026631642       11.25278947668741       10.20579004534872
C           -3.64383017873940       12.03455416357067        9.61440695807022
N            1.57652214256388        7.93318803002700        5.77929514717151
C            0.86951963851563        6.93709269593354        5.48426659337561
C            1.24602025610479        5.67684298231639        5.16010384495058
C            0.04280212598716        9.76248701224033        1.96328636405769
C            1.09401363365284        8.99357699963055        1.67005352762770
C            1.36820355542337        7.80000333889482        2.17277819143159
C            2.45377347822043        7.01021025322609        1.86441416736367
C            1.23205408464428        4.89422782113285       -3.56689286980186
C            0.77861064078340        3.86276541205379       -2.88322690190306
C            1.44469327978235        2.97534164189419       -2.15759502517092
C            2.73561724731023        2.86133237304725       -1.90466259716771
C            3.81321375468598        3.62505881657895       -2.39223624749072
C            2.32459128196828        1.71743753886786       -5.47676557200465
C            2.49050982920547        0.57131343211061       -4.88502423376965
C            1.59852174359222       -0.07346228097983       -4.09507394213262
C            0.28133918418582        0.32985691733178       -3.78508501641475
C           -5.23896277808980        2.14463538951163       -2.74947066283512
H            2.44069677276976        0.64700637435112        1.71380440854863
H            1.82745449229129        1.96408469434759        0.71764113676928
H            2.89435910046030        0.75371081494604        0.01183555507513
H            2.03213285817023       -1.73669930062572        0.42809537443560
H            0.13100721523812       -3.19247603377152       -0.11890939170574
H           -2.09047565107468       -2.21679342934738       -0.49387478087780
H           -3.45078316948370       -0.32199771337922       -0.95458524737875
H           -2.76791372950821        1.30025535509736       -0.93858653633868
H           -3.29685158172979        0.55349407150237        0.56960679312127
H           -1.17820804351829        2.11600438982760        2.22606387007011
H           -2.56285899361281        3.36944309276580        3.71663608009099
H           -2.13366066569618        4.86322592990111        4.54054873765210
H           -0.88035512741004        3.68923407958353        4.15567568558785
H           -3.34759611054972        8.35036706626306        2.54021977721129
H           -5.27594501518248       11.19139881696780        3.24712524509824
H            2.50898462589619        4.23830602494058        7.70515482973219
H            1.07224636479195        5.46831077130925       10.98337836366574
H            1.45070909985538       10.57906792290552       10.41188416812174
H            1.54738013283771        8.01014470739132       12.62863263465083
H            1.80946121010453       12.34189980137744       12.01479744784725
H            2.09168664590621        9.30908375446555       15.81058414072794
H           -1.79408951992838        8.52036478692566       16.03294555465649
H           -2.99073347799503        9.61748542332750       20.12071461985451
H            0.45621373428460        7.91060658009920       18.19059211524839
H            0.35697037506380        9.79342863635905       20.64347999522111
H            5.05049193160884       12.97416058805846       21.52993960870274
H            3.55240787777341       15.11190426295286       17.73308416722012
H            1.11618204899092       15.05549735594930       15.94748026034026
H           -0.65059719574468       14.32453871812182       14.40059083288026
H            1.95237855010839       13.33411971785999       15.02388211268374
H           -2.80774269553574        9.53860967159757       13.73715259467043
H           -7.64515248051669        9.32900195287524       17.21850816785544
H           -3.56493029432046        7.64118470584958       18.13876549599193
H           -5.70887869843476        9.52277756954079       20.27170311533374
H           -4.74522248007717       13.26253976951010       23.85378497499728
H           -2.44528707792460       15.23064390795890       20.07522154420819
H           -3.85019140799130       17.51807822017811       19.63206945741137
H           -3.54614381312720       14.59127297140705       15.02863214215668
H           -0.32984388216781       14.47721712682473       18.08731403225390
H           -6.59414414504478       11.10323391658221       14.89814151525239
H           -7.08289868323955       12.06700500114258       12.49473237358570
H           -5.33538799149566        7.19181478558722       11.49039403264938
H           -7.11970322878518       12.50246072445761        9.47289529520479
H            2.61861129211798       11.12001774822976       -0.07820185715794
H           -1.02769604136157        8.55890439841381       -2.37635081682256
H            2.40802405032755        6.61958937217615        0.89009108696542
H            2.24074021675198        5.18654140076411       -3.58776726500079
H            4.36277552193642        4.21758558909879        2.49978553794450
H            5.63308407263031        6.90034901774611       -3.32629894223022
H            4.71067157403738        3.46848936524727       -1.82403628221759
H            4.01038766707260        3.43465231363159       -3.43009701974595
H            3.46989559116708       -0.73313490743171       -6.47613638862143
H           -2.12040702114923       -1.83479660823736       -6.07013827951592
H           -0.32057703634738        0.46619283482978       -4.66466797751865
H           -1.20433576568884        4.21239465849484       -1.58568606106432
H           -0.21042045110052       -0.35292754361422       -3.11619227182746
