54
 energy: -9.778588158568 gnorm: 0.000636202006 xtb: 6.5.0 (97a52f5)
C            2.77780242765635        1.04360978019999       -0.27152249357859
C            1.42594557406084        0.41501173222056       -0.28141925527240
C            1.33094901047107       -0.94602049331357       -0.50761736881557
C            0.11497848452852       -1.59435680289718       -0.46450000599777
C           -1.03312481161944       -0.88300006672279       -0.18949171205716
C           -0.98989891390703        0.48184856327719        0.02527729115431
C           -2.25217016233248        1.22317868845732        0.30841494082786
C            0.24880224530410        1.15901011834428       -0.03401389194375
C            0.27569359457438        2.60334603810064        0.17483173037458
C            1.01604206300601        3.48371176001862       -0.53288168748408
C            1.04320850144456        4.89931551060362       -0.36155366666224
N            1.79089244167326        5.59233574535470       -1.22032007311229
C            1.84942690625745        6.91897940870152       -1.07897962521995
N            2.67740808922272        7.63813761166000       -1.99179327512276
C            2.91281688970486        7.05704083608559       -3.31853748095064
C            4.18444163853955        6.21227150754305       -3.30274931161929
O            5.30500200498328        6.97590420855516       -2.86944104532540
C            5.10443942089860        7.53428324284137       -1.57461469907712
C            3.84900147958969        8.40516690377382       -1.51935941007914
C            1.11727501931395        7.61911715169775       -0.09173235332034
C            0.34513246406047        6.90531485063360        0.78336479497615
N            0.30841047122455        5.51918892140828        0.66707494944938
O           -0.39049879909862        4.84165331990767        1.48393754671159
C           -0.51297380574937        7.52854756357433        1.84144554715405
C           -0.39570913335199        9.06066726936495        1.94687512464349
C           -0.15267182381700        9.69954134493084        0.57346021177396
C            1.12185574147534        9.12237683828740       -0.06162465591363
H            3.53164105897526        0.34053122837731        0.08557027620365
H            2.80895038451944        1.90993416677484        0.38990141886412
H            3.07013805889459        1.36096288171421       -1.27300098297199
H            2.22875450919508       -1.50628826850786       -0.70677838018349
H            0.06335622884770       -2.65690313744275       -0.63702808863064
H           -1.98114516729237       -1.39166856832010       -0.14629804379877
H           -3.12915580332256        0.61441226337924        0.08571997338328
H           -2.31935953927845        2.12750169554967       -0.29761907477656
H           -2.30612557432753        1.51212384763491        1.35859126139237
H           -0.39330579859681        2.99846929277361        0.91591427170199
H            1.61660303281233        3.10321010675424       -1.33877670530430
H            3.00429765104285        7.87174192663227       -4.04341249309492
H            2.03687452220162        6.46608859574273       -3.60758285902781
H            4.41780320629219        5.80322127579481       -4.29435032530638
H            4.07525577719904        5.36317579761953       -2.61803512078010
H            6.00630114467463        8.10386511612031       -1.31509759088470
H            5.03199883390868        6.70411043218621       -0.86233356879680
H            3.96584323221538        9.28758894204990       -2.15531659466196
H            3.67069641054102        8.76320677655566       -0.50206289128059
H           -0.27067538000428        7.05718831933409        2.80187390859819
H           -1.55360845325487        7.24983293318339        1.63875562922008
H            0.43657017551107        9.31784607217288        2.61357293876120
H           -1.29110523513592        9.48738037816177        2.41934952068744
H           -0.09274860109716       10.79402956031787        0.65321225179032
H           -1.00964669763713        9.49553578446991       -0.08028994397898
H            1.99076487727909        9.46540711973426        0.51056796776317
H            1.25541012770769        9.50584390863389       -1.08072688039499
