42
 energy: -8.399439324844 gnorm: 0.000667277881 xtb: 6.5.0 (97a52f5)
C            1.12104871180877        0.12290687284180        0.11433323979026
C            2.64961131769155       -0.00244010674123        0.08607730110912
C            3.10281294574370       -1.01889962810536        1.13811830896898
C            3.10402082125047       -0.44624420485210       -1.30756157694425
N            3.25194073838452        1.31633993745461        0.39851643835245
C            4.61963023387465        1.53373105649573        0.39226903515386
O            5.42698959321960        0.63139519155428        0.21961410263771
C            5.07477149048517        2.93182678104643        0.59710156704853
C            4.47740111993856        3.70839774042672        1.58533902796140
C            4.86012851290514        5.00929868099230        1.80910295711884
C            5.86594966516088        5.60103968571666        1.04151701496337
C            6.28286412108503        6.95255659307670        1.24416607883688
C            7.25121677031307        7.50981545421073        0.48271750836732
C            7.89470458479730        6.76730536561360       -0.55607502155549
C            8.89138391588397        7.32146067413428       -1.36117013759756
C            9.48875095132967        6.57740492646582       -2.35764441417300
C            9.11506566834052        5.26835165879221       -2.58022813171327
C            8.12431281528042        4.66663065604634       -1.80230212648652
C            7.71242926488995        3.31273860878096       -2.00054612853817
C            6.74996206065252        2.75666321514146       -1.23184406203179
C            6.09870531663661        3.49043738955324       -0.19539570762966
C            6.48796579420799        4.83419767931700        0.02742251181463
C            7.50605114658890        5.42362611594609       -0.77800011298163
H            0.64629628957806       -0.83408942238011       -0.09889291935210
H            0.77867950994685        0.84265044748000       -0.62795181820249
H            0.78051852449161        0.45986676700867        1.09238654677828
H            2.69179009990185       -2.00692142252620        0.93462545239142
H            2.78030201778035       -0.71206193096920        2.13183812917473
H            4.18885518493837       -1.09380487466039        1.14731436145224
H            2.67869094264255       -1.41378772338239       -1.57130880609626
H            4.18896252604413       -0.52856011049551       -1.34274708369817
H            2.79856517718723        0.27922829854488       -2.05996146336416
H            2.60199646575332        2.10200385136931        0.40240470650873
H            3.70398224481964        3.26722416407994        2.18995238099903
H            4.38405691013756        5.58800145715262        2.58168498078731
H            5.80733039822660        7.52604454050536        2.02090889332480
H            7.55225961560205        8.52962242513865        0.64842420835551
H            9.18975662109949        8.34229779604133       -1.19587950618753
H           10.25564147650605        7.02399271284856       -2.96918143351075
H            9.58698555068176        4.69630235142596       -3.36031536556846
H            8.18862000681321        2.73771633491877       -2.77558439397165
H            6.46295287738061        1.73166399399118       -1.38258454229220
