45
 energy: -8.935872664548 gnorm: 0.000379661455 xtb: 6.5.0 (97a52f5)
C            2.49091303698936        1.39491728607276        0.60609077505586
C            1.35807852707205        0.52751812744419        0.19226726625129
C            1.53370745018843       -0.83657847914827        0.07763998790932
C            0.48959181264965       -1.65713004948356       -0.29909738327843
C           -0.75044010600626       -1.11656878480639       -0.57371255579204
C           -0.96376302249406        0.24468509339823       -0.49056565781723
C           -2.30052950211026        0.82300464833577       -0.78689846995217
C            0.09812231940108        1.08844576828022       -0.10379354071441
N           -0.10436769351273        2.49989538022789       -0.02997279402223
C            0.42252286014640        3.41607912717085       -0.91192167811493
C            1.26177868890962        2.97535976224722       -2.04315683148559
C            2.45666575088764        3.63416456411958       -2.33796153323928
C            3.24348028297212        3.23061773268622       -3.39300574109882
C            2.85508068490011        2.16409293319232       -4.17898999416681
C            1.67474117131868        1.50209798557459       -3.90617023596070
C            0.88607223129987        1.90304700098344       -2.85189201943024
C            0.15807270232777        4.76051279625586       -0.75568631860664
C           -0.67480073063333        5.26529213841483        0.26147355535949
C           -1.04118150822764        6.61627340535406        0.31106531291740
C           -1.87219915799313        7.06521250679611        1.30417099951773
C           -2.34405533891923        6.18330751678355        2.26380946907351
C           -1.96609758668894        4.86515232457000        2.20880004465766
N           -1.16022503922682        4.42872154045218        1.22892074378575
B           -0.67375990338279        2.98034778211165        1.32442045358725
F            0.34900887330931        2.92820161593172        2.26466629344604
F           -1.74291076968923        2.17505712024641        1.69594796909106
H            3.05487484507006        0.94015463959744        1.42091170188675
H            2.13068082555576        2.36314064283893        0.95418584822519
H            3.17329974178704        1.56588539095248       -0.22684680117868
H            2.50036844840893       -1.25935928844651        0.29173769508995
H            0.64194585605117       -2.72105959566791       -0.37606230484796
H           -1.56550623777832       -1.75880133405525       -0.86025563097683
H           -2.88036173908297        0.17349734022458       -1.44325398612784
H           -2.20381081563666        1.79350055643375       -1.27425348507642
H           -2.86508758290162        0.96925036772249        0.13426995084574
H            2.76575905939200        4.45810525189075       -1.71837757207480
H            4.16500568319485        3.74751068560062       -3.60497845274833
H            3.47209153962642        1.84940331238632       -5.00462079119748
H            1.37006576605823        0.67000412020125       -4.51938935344406
H           -0.03446693466769        1.38885436462643       -2.64226846640331
H            0.55387007565581        5.45012400205766       -1.47849387896001
H           -0.67141505576271        7.29206756793322       -0.44044220359064
H           -2.15916212898002        8.10339875030572        1.33998979064289
H           -2.99517131057204        6.53074306861850        3.04867735422966
H           -2.29835606890026        4.15421331356356        2.94544246873116
