50
 energy: -10.178417724059 gnorm: 0.000425281851 xtb: 6.5.0 (97a52f5)
C            2.34847716883747       -0.19922161308915        0.88138764200187
C            1.03208645204388       -0.23370114762101        0.18782880413451
C            0.64099746879898       -1.38118906324756       -0.47692644556045
C           -0.59221568468495       -1.46076468446341       -1.09016893764514
C           -1.45342225780485       -0.38382267572947       -1.04751000318290
C           -1.09233979116475        0.78858868177763       -0.40933861405529
C           -2.02843399979564        1.94425429070882       -0.37488660877079
C            0.16583959722431        0.87673019181273        0.21471453463787
N            0.54376286283456        2.08199088845114        0.87839462689597
C            1.67684285281531        2.87049131923908        0.61708804327216
C            2.03891601722556        3.90323645715761        1.48486451147646
C            3.16159241080654        4.65646103733492        1.24909719859785
C            3.96768691987538        4.42437870505341        0.12809141327507
C            5.16835029868000        5.21518403134149       -0.06751454627742
C            5.94597580222412        5.19381040408129       -1.16492450810266
C            7.17869248702983        5.94633233106380       -1.33233307588138
C            7.76464650914185        6.04436835240637       -2.61941009572664
C            8.92743382061277        6.72058464299388       -2.81882209208697
C            9.59589392552505        7.34487811478294       -1.73904733430453
C           10.81066869175311        8.04428618090666       -1.90725392202993
C           11.43210193561171        8.62433564115300       -0.84027435817337
C           10.87371061090787        8.53597678062391        0.44105940021579
C            9.70115980282746        7.87021104028742        0.63914166460736
C            9.02922859266010        7.25609198891960       -0.44418791856324
C            7.82033482586617        6.55222048627716       -0.27113947414940
C            3.58690174754881        3.40396939738343       -0.75164294058598
C            2.46750047929144        2.64734372600214       -0.51197188446340
H            2.53357876132088       -1.13195752956082        1.41603851377717
H            2.38908029161675        0.61067494536955        1.61009885456618
H            3.16148135415507       -0.05406986032408        0.16892704476422
H            1.31004447490452       -2.22475671848558       -0.50121505849309
H           -0.88479177030816       -2.36577645406412       -1.59724620552549
H           -2.41936907223902       -0.44808656695102       -1.51911027891351
H           -2.71863536987362        1.91932971420382       -1.21938295460584
H           -1.48466849839226        2.88851019988694       -0.42278713233354
H           -2.61872188283712        1.93879212391036        0.54233905345260
H           -0.12503797751057        2.46740343998637        1.54143128844079
H            1.43274449986560        4.08933038895296        2.35425779323044
H            3.43592340321126        5.44031122000317        1.93441703196609
H            5.43942680470120        5.87117113265537        0.73963247469947
H            5.64465990528833        4.58620669738746       -1.99850302178898
H            7.26817093255154        5.57177608339747       -3.44974509193318
H            9.35692254967469        6.78580725787206       -3.80370591422463
H           11.24153842831280        8.11125043595630       -2.89148655958932
H           12.36023213516835        9.15407934395056       -0.98067339228074
H           11.37732603753262        8.99806953251865        1.27453984247229
H            9.27301440436179        7.80138717540727        1.62442368562336
H            7.41239194207550        6.47436789461830        0.71921745439389
H            4.18862831513301        3.19555432379750       -1.61810091560628
H            2.18198078459084        1.86838971390926       -1.19676159163126
