44
 energy: -8.791221408094 gnorm: 0.000549650861 xtb: 6.5.0 (97a52f5)
C            2.28928870539846       -0.23473723341279        1.10292221010602
C            1.02576348428419       -0.27266276140951        0.31791320865728
C            0.66877948227905       -1.42851379556406       -0.35140993325578
C           -0.51454430233154       -1.50322394037273       -1.05697849520477
C           -1.35920387342903       -0.41324193150600       -1.10308473107384
C           -1.03040603539713        0.76663075637853       -0.46124240487286
C           -1.94623162755224        1.93734864763975       -0.52104198173035
C            0.17637166923125        0.84891493074805        0.25754860181293
N            0.52698423556091        2.06628464762601        0.91644290895382
C            1.64029379224741        2.87648808580080        0.63541649198113
C            1.90715642119555        4.00753952333771        1.40947109014307
C            2.99185076963904        4.80353059596310        1.13831490938833
C            3.85728250913024        4.51270819440468        0.07686558462781
C            4.99855642027125        5.37437171911546       -0.17061967307683
C            5.85760696236786        5.25748240829047       -1.19825819733375
C            7.00732235031663        6.11629406140967       -1.43932466182473
C            7.76128089036026        5.94438877500759       -2.60328448443459
C            8.85706524313483        6.73803364416055       -2.86277583223543
C            9.22847591692266        7.72068403328650       -1.96682083738365
C            8.49947813925983        7.90633260632128       -0.80888063203482
C            7.40214390684661        7.11535470829944       -0.54538675818649
C            3.57844273105957        3.38436218030701       -0.70355002146040
C            2.49417317886819        2.58836739414871       -0.43076321441055
H            2.40640965254635       -1.14105722107470        1.69877438717627
H            2.30283915588143        0.61370478802794        1.78755209510990
H            3.15532066655518       -0.15121297491318        0.44512563566648
H            1.32493792331701       -2.28139349873616       -0.30823537269023
H           -0.78084825995601       -2.41386684331108       -1.56842506352736
H           -2.28586237863110       -0.47328877425976       -1.64831916017623
H           -2.58347322163914        1.89670713669008       -1.40520997161321
H           -1.38389139602090        2.87070941128606       -0.56382768239222
H           -2.59168101772638        1.97062220540938        0.35735643420630
H           -0.17857355090390        2.47561675357755        1.52470566017739
H            1.25152805300919        4.24378060440963        2.22939970808553
H            3.18736736622116        5.66950546332339        1.74759467039299
H            5.14714864640015        6.17165662392362        0.53408822310890
H            5.69458957759015        4.47669210780973       -1.91798084371158
H            7.47413219588445        5.17911353232926       -3.30414107415277
H            9.42551526265721        6.59169744097059       -3.76681509994924
H           10.08638175378996        8.34093806081744       -2.17019867913625
H            8.79082604456208        8.67188174379351       -0.10823469933203
H            6.84995134270857        7.26725421750526        0.36461092300879
H            4.22371500001576        3.13121586805011       -1.52548663350034
H            2.28344621408160        1.73043610439412       -1.04434660391491
