92
 energy: -18.323213460419 gnorm: 0.000186956859 xtb: 6.5.0 (97a52f5)
C           -6.19672402360365        1.35980444985541        3.91825443975025
C           -4.95265341900051        0.90450478870389        3.23810202713905
C           -4.64139786873717       -0.44672353312509        3.16216980572090
C           -3.47388507547043       -0.86749197251037        2.55619863101812
C           -2.60342459354516        0.05254043495213        2.02069404227640
C           -2.88534640807535        1.41900456779469        2.07692152391301
C           -1.94839901095467        2.40967860888398        1.53178587209764
C           -1.68033118161373        3.64201625962640        2.11314407680146
C           -0.64835314014593        4.26110587670629        1.38531135307270
C           -0.08638142978432        5.53347322725282        1.57632026563142
C           -0.54512245844423        6.43344879302609        2.66318879099393
C           -1.29698000093093        7.58643030451424        2.36066205858110
C           -1.64309396575181        7.92994681531173        0.95301614390776
C           -1.70783144291122        8.41719757047620        3.38579892671604
C           -1.41324180733767        8.13977694818016        4.71136228246075
C           -1.90056655923864        9.02955429777813        5.80190051641072
C           -0.69038550715078        6.99364521607937        5.00258614838471
C           -0.24010365845156        6.14539403570392        4.00857419590199
C            0.54591870372341        4.93520557435753        4.37813661173217
C            0.92625119066334        5.91629195284184        0.68257924582351
C            1.69302791377319        7.09535623946538        0.68135733184146
C            2.62526128623384        7.01104735929902       -0.34442289052594
C            3.55205183727374        8.08650422964581       -0.71775221089600
C            4.09037530275209        8.93464451115597        0.25150830624989
C            4.95392671927958        9.94541501993511       -0.10257889843089
C            5.29729322725908       10.13497683805489       -1.42716620087861
C            4.77727728115534        9.31270325379444       -2.41750908738652
C            5.12831864146180        9.52844859838333       -3.84836918971300
C            3.89875134340372        8.30917032698551       -2.05252396749336
C            2.46187453991065        5.72551775100040       -0.98654557951034
C            3.35433384993572        5.12777329064278       -1.97668809753036
C            2.89364394780954        4.20383453933091       -2.91437030738879
C            3.74078980525168        3.65630828421692       -3.84777777269227
C            5.07474789970846        4.01345529881135       -3.86754127872698
C            5.57511444117547        4.92191648527776       -2.94452985334675
C            7.01781479130850        5.28979296318395       -2.94036590319310
C            4.71401533010536        5.45394020517026       -2.00326841901696
N            1.41142726708384        5.13411873875772       -0.36109977279570
B            0.80266190615645        3.74186578701175       -0.65091349378757
F            1.83473297122075        2.81514132957651       -0.54186161896597
F            0.21410066732767        3.76091150392966       -1.91139185211164
N           -0.30687879006255        3.37842118388805        0.36430610124502
C           -1.09144865128285        2.26921226970119        0.37526527484798
C           -1.20270416827402        1.25078761337298       -0.66584603970977
C           -0.11119476233469        0.88164361369817       -1.45140409633156
C           -0.23107338600946       -0.07573659128352       -2.43006276167106
C           -1.44948841315724       -0.68428281065564       -2.65897742432884
C           -2.56648092035100       -0.32732008047464       -1.91621615028998
C           -3.87769816416802       -0.99199599552814       -2.15392231702795
C           -2.42889173201314        0.63237781629656       -0.93054390616966
C           -4.06505022999001        1.82278484981651        2.70588692603103
H           -6.98377097469400        0.60831797414930        3.84382875453086
H           -6.57490269726634        2.28022787640092        3.47156436161176
H           -6.01170074842462        1.54998150380715        4.97614054498998
H           -5.31986127718343       -1.16710934692005        3.58624333779810
H           -3.24290865817833       -1.91904693007158        2.50582014386343
H           -1.68714012629930       -0.27317593335821        1.55942901946856
H           -2.15494471133026        4.04438350595745        2.99013368060470
H           -1.67314412624885        7.03988793236597        0.32379652443176
H           -0.90934738775258        8.61660680013510        0.52950631739321
H           -2.62257287609544        8.40609936911861        0.89458582107327
H           -2.27714713453843        9.29875289989041        3.14949591044239
H           -2.00102099778104       10.05884346722440        5.45517806337703
H           -1.21030220484350        9.03104381908010        6.64646861180461
H           -2.87518409606534        8.69972014278513        6.16387632785373
H           -0.46982971337763        6.76102008773804        6.02941313840766
H            1.22094419790941        5.14560955567869        5.20861694119367
H            1.15312531732415        4.58522458301994        3.54276756923106
H           -0.11392806697484        4.12073244227958        4.67901309703190
H            1.55995137019268        7.92728670180106        1.34953588548525
H            3.83165363752331        8.78084368104509        1.28484210128455
H            5.36515156077674       10.59118659054153        0.65606647443318
H            5.97161890058124       10.92756140955109       -1.70318591352437
H            6.14719862904887        9.90396272797183       -3.95073927414060
H            4.45398049415579       10.25209028822306       -4.30781494310489
H            5.06078870210414        8.59832418092538       -4.41419874054297
H            3.46979967437290        7.68381086357661       -2.81457580092847
H            1.86153060339384        3.91294973903395       -2.88633654738529
H            3.36443997220913        2.94309825942650       -4.56293146838690
H            5.73998509542810        3.58267240480231       -4.59621686975025
H            7.44733057663663        5.21247678042250       -3.93991795546387
H            7.58292612832130        4.63256801458266       -2.27840799868859
H            7.15970553731116        6.31578962889914       -2.59817217985063
H            5.10261078653247        6.13407760637445       -1.26732827229416
H            0.82955815340363        1.36994827768463       -1.28762595346834
H            0.62640210295886       -0.34937498847074       -3.02301623650256
H           -1.54440785333850       -1.43801764631838       -3.42189799009036
H           -4.05519250018973       -1.13758975780327       -3.22019952541552
H           -4.70114471548679       -0.39527403022923       -1.75954690244606
H           -3.90968606011516       -1.96893852978285       -1.67014576640346
H           -3.29198151345373        0.91869341506869       -0.35795830324594
H           -4.29289309536843        2.87169599436968        2.76751220653166
