43
 energy: -8.852210618161 gnorm: 0.000609501803 xtb: 6.5.0 (97a52f5)
C            2.77298396207317       -0.34275805204671       -0.64243607227315
C            1.33245033449778       -0.07487268004975       -0.37876221062081
C            0.46057709223253       -1.09971954768359       -0.03958086897109
C           -0.87135791634525       -0.83666812177694        0.20848379211432
C           -1.35063770349434        0.45076811163592        0.12981750681413
C           -0.49826212768492        1.50075800854631       -0.20243090283953
C           -0.96567100758876        2.89269761283051       -0.30586452109636
C           -2.02614714891885        3.34189836976082        0.42393837974334
C           -2.48880758888371        4.67881160619588        0.35412099481266
C           -3.58483744692783        5.13503436338250        1.18326289113356
C           -4.22548218560907        4.29017873630115        2.10627032729407
C           -5.25372791634951        4.73895320394528        2.88888826137998
C           -5.68600674782489        6.05131240952705        2.78342644542671
C           -5.08445313144014        6.90023387622830        1.89445697525339
C           -4.02719208273998        6.47154639877767        1.07658066451296
C           -3.38140710730700        7.35748517575477        0.13002101032696
C           -3.77380987365691        8.69250864834279       -0.05095642919872
C           -3.14618852407499        9.50148047489370       -0.96015891237829
C           -2.10025351282578        9.00682632214825       -1.72575938296658
C           -1.69662679776020        7.71133864602696       -1.56923271975412
C           -2.31569064285179        6.85940950048094       -0.64648892049817
N           -1.90063545993332        5.53805556391527       -0.49449361928980
B           -0.70929549531265        5.11461429566225       -1.38439047767178
F           -1.10635934921888        5.24137353240526       -2.70412579100472
F            0.35335338568861        5.95538234313559       -1.10003991915614
O           -0.29002602428507        3.72299529163597       -1.14182967930961
C            0.83720526374053        1.21420671166361       -0.46192457102002
H            3.00496504398768       -1.40372678662038       -0.54691977717012
H            3.40225570729499        0.20064515743176        0.06310307346706
H            3.04727651040863       -0.03024668320926       -1.65034305604857
H            0.83202287690312       -2.10785986361275        0.02584860657759
H           -1.53886958172321       -1.64372411332829        0.46257704112842
H           -2.39439470511606        0.64586650080861        0.30260394520036
H           -2.50163548112106        2.65368100706927        1.09291528390138
H           -3.90815392397180        3.26958278012348        2.21195697701559
H           -5.72917925728808        4.07337092017250        3.59082613409646
H           -6.49512086106214        6.40141727824511        3.40337479949400
H           -5.43372573112615        7.91422560487460        1.83004407636277
H           -4.58307467103681        9.09601436625626        0.52917865608416
H           -3.46450729081409       10.52360418781470       -1.08414659426173
H           -1.60940936589962        9.64494602807995       -2.44229775100189
H           -0.88922370265299        7.32242191050713       -2.16276708275589
H            1.49592018601919        2.02109090374770       -0.72943658285289
