37
 energy: -7.453665062024 gnorm: 0.000638298950 xtb: 6.5.0 (97a52f5)
C            2.34119060773120       -0.09886757706362       -0.68909012963687
C            0.92396196786562       -0.05327543450846       -0.23567077400287
C            0.31428997345292       -1.16939490132007        0.31909433132324
C           -0.99129355189490       -1.10941262541908        0.76112556523008
C           -1.70262774290853        0.06328563484812        0.65370208967706
C           -1.12353294245022        1.19720823082574        0.09789229566444
C           -1.91758410923650        2.43250712207376        0.00719778216033
C           -1.58114736434976        3.43764310295712       -0.85375585551217
C           -2.36260048825935        4.61250291628844       -0.97440381539910
C           -2.09656145770369        5.61893839343249       -1.96204530533057
C           -1.04283408974655        5.52867949720465       -2.89528996764672
C           -0.83340449274479        6.51237817488261       -3.81759417327007
C           -1.66153083456242        7.63471965842585       -3.85753879662931
C           -2.69137948276377        7.75772273729771       -2.97323463282314
C           -2.93570376614325        6.75815449608023       -2.00886446813463
C           -3.99902369610876        6.86772194443610       -1.08747902629983
C           -4.20360454549359        5.88725171447182       -0.17293663042546
N           -3.40373734869224        4.79223143452955       -0.13257768500520
B           -3.68079706287182        3.82341578847508        1.02859266891860
F           -3.16822486650786        4.40362521511357        2.17402805117107
F           -5.04857621344502        3.65338303470740        1.13113501342657
O           -3.02236349001920        2.52529920607573        0.79946736726865
C            0.19928722180156        1.12141197234002       -0.33388076030684
H            2.70417311798743       -1.12473291387502       -0.75506762015396
H            2.98590536454971        0.44131799126033        0.00467689511540
H            2.44920949966166        0.35534251325715       -1.67457146019180
H            0.87203232905591       -2.08581934861152        0.40701857203189
H           -1.45367510220730       -1.98201257821049        1.19254989125791
H           -2.72016889513346        0.12128805118172        1.00074714116536
H           -0.73146142948647        3.30788532951609       -1.49290873843667
H           -0.39348183005216        4.67265636243598       -2.88699240634794
H           -0.02350248496469        6.42480970271847       -4.52333506753794
H           -1.48425773132382        8.40407842130892       -4.59102983819025
H           -3.33152197418879        8.62241795362152       -3.00294219693855
H           -4.63711731593234        7.73366848332955       -1.11609981462214
H           -5.00159314922331        5.95180973180035        0.54742870601750
H            0.68385737630823        1.99387056411281       -0.73155720758546
