52
 energy: -10.441571770042 gnorm: 0.000478317409 xtb: 6.5.0 (97a52f5)
C            1.37618550882306        0.16166513668400        0.88487350192813
C            2.79731323678044        0.72588511641363        0.81031395691289
C            3.24144244826073        0.84971945420268       -0.65006597149589
C            2.85295237561634        2.10529129565693        1.47927944173518
N            3.71134479455478       -0.19225101993044        1.52782018642025
C            3.93885288664851       -1.49581748335730        1.12174592155708
O            3.46185577529023       -1.95802063603778        0.09575937292950
C            4.75451963573355       -2.35788077780811        2.01655618286141
C            4.36048543091328       -3.67087115376727        2.14627874657839
C            4.87866046988029       -4.49111713207002        3.14241050957588
C            5.74479889290328       -3.97865038166069        4.06316019893972
C            6.18150944302610       -2.64281231824237        3.97212557407389
C            6.95985972662818       -2.06260462370419        5.00259116349857
C            7.31850856076852       -0.75654783094354        4.95200866845688
C            7.04533758730752        0.04098517476825        3.81309943165263
C            7.40367594897722        1.45245411431622        3.77507437229419
C            7.76666691555967        2.14284272947712        4.93660078981405
C            8.05131475430139        3.48812073854994        4.91018752117317
Cl           8.48608088006512        4.30120321992616        6.36974728890174
C            7.97608154366967        4.19086395316490        3.71274513905684
C            7.62115657359380        3.54306531694112        2.56170597494364
C            7.32939537734567        2.16689653044177        2.55606123578134
C            7.00029263246316        1.45641677027588        1.33295261268630
C            7.15888615653234        2.05194984086712        0.06799651003021
C            6.96156265216032        1.34276350751871       -1.08437197560632
C            6.60844224120083       -0.00012491716592       -1.01838750126676
Cl           6.39047953760053       -0.91501741375159       -2.46456211000953
C            6.43034512297140       -0.60273993654155        0.20357843795389
C            6.57881298690003        0.10621347158142        1.40061289531949
C            6.43086126161489       -0.55312986611451        2.69639911541666
C            5.79589084144407       -1.84732655896278        2.86056602856815
H            0.66704699919628        0.80821024676502        0.36978411972091
H            1.05839318942937        0.06057774142235        1.92142895427324
H            1.33838782163379       -0.82515762524659        0.42593648674079
H            2.56817976121494        1.49307955695114       -1.21492134076087
H            3.26121117571060       -0.12972614364086       -1.12501800059352
H            4.24391130043271        1.26872725549383       -0.70931926595703
H            2.20059395991073        2.81369364129225        0.97045045770150
H            3.86771848669790        2.50026911031541        1.45608137066465
H            2.54027325567031        2.04407627641613        2.52054322497766
H            3.99133802350034        0.11533924256129        2.45853512477089
H            3.59374603517474       -4.04358273752853        1.48840507420262
H            4.55066072636745       -5.51467551593302        3.21890301646095
H            6.09478891958499       -4.58913134811019        4.87762390247444
H            7.21785553774050       -2.66315048165928        5.85773606877000
H            7.87870450216035       -0.33743758590282        5.76800842254611
H            7.79504633622016        1.64184190099961        5.88577738879618
H            8.19517411049251        5.24508160897351        3.71208099225126
H            7.55036178797445        4.10808561131598        1.65055563149698
H            7.47418872137164        3.07640488953234       -0.00430843659155
H            7.09512480151654        1.80102890427302       -2.04953246755428
H            6.17942234848973       -1.64705886903686        0.22261605492212
