35
 energy: -7.373152770450 gnorm: 0.000629564710 xtb: 6.5.0 (97a52f5)
C            1.11644841485828       -0.36003989337686       -0.86879615960037
C            2.45233290828085       -0.20548360265191       -0.24540963620202
C            2.82602759099953        1.00118704420753        0.30833956186077
C            4.07079119078129        1.14199670171304        0.88886532464712
C            4.93204292620100        0.07922541878758        0.91329911346013
C            4.56634783913212       -1.14919803139620        0.35645912346833
N            3.32012397148213       -1.24648310301046       -0.21187255850322
B            2.81242937323616       -2.53978643779202       -0.85550892229978
F            2.55522874468511       -2.32446511480345       -2.19976249985559
F            1.68605577046740       -2.98640612000190       -0.18370730202579
N            3.90141670507486       -3.58207019560485       -0.72831361063239
C            5.09037054883802       -3.30340959471244       -0.11826397469054
C            5.87202355167141       -4.53969924264754       -0.18632957724146
C            7.12565531910780       -4.95699863504082        0.22353076628264
C            7.51755262683590       -6.27459628690240       -0.04280805328948
C            6.70067804815025       -7.17450819975973       -0.69975285828452
C            5.41269856142786       -6.78847512035853       -1.13529729391541
C            4.43643764148865       -7.55055061701063       -1.81855031274530
C            3.21953745112294       -6.99032372119909       -2.16563984895313
C            2.88966556656743       -5.66577541676642       -1.86687040093489
C            3.82036189603121       -4.88964368266465       -1.19856158268759
C            5.05594556216243       -5.47069658184627       -0.85171584767130
N            5.47787700745522       -2.16126004477354        0.42132474860612
H            0.53813749032631        0.56272383329944       -0.81873863091018
H            0.54940266047606       -1.14293690218025       -0.36498657784177
H            1.21556251004222       -0.64122443301523       -1.91730805860885
H            2.14262218241820        1.83241300647816        0.28560519251415
H            4.36164294771260        2.08564678981856        1.32062463296845
H            5.90555078402229        0.17216273530626        1.36193040205230
H            7.77712438190686       -4.27195167380932        0.73590278878843
H            8.49439435422145       -6.59669640529876        0.27812041485050
H            7.03491586723937       -8.17955266300497       -0.88769244681284
H            4.65491706860454       -8.57434334007296       -2.06565566009630
H            2.49706004669593       -7.59664506265112       -2.68652764706494
H            1.94110049027633       -5.24085540725822       -2.14223260863132
