100
 energy: -22.255106304617 gnorm: 0.000661506878 xtb: 6.5.0 (97a52f5)
C            1.62266713808302        0.19185204581629       -1.52625848294187
C            3.06913601420719        0.51058289274137       -1.42900619188069
C            4.01774555441789       -0.37648996384677       -1.89861348257415
C            5.38443865016329       -0.10029373275317       -1.83769382933857
C            5.83988152918861        1.07802556652543       -1.30270704974122
C            4.90770832065888        1.99053480375784       -0.81185194823635
C            5.07045704925442        3.30583055093200       -0.23927171882621
C            6.19582116533995        4.08771959304766        0.02385664432311
C            6.01722026200130        5.33859970411991        0.56522179364692
C            4.73764485255675        5.82450920914171        0.84759445380044
C            3.62151817191573        5.06618952876973        0.59268128347675
C            3.78710824465473        3.79559913021813        0.04406594584585
N            2.83433408124744        2.82116660899529       -0.31768615480236
C            1.41231726452071        3.03666079794895       -0.25143313253224
C            0.60877520951749        2.29825459306958        0.61365193981934
C           -0.75188331908278        2.48493888117075        0.63457893545428
C           -1.35585431322245        3.42028858084616       -0.20884491540598
C           -2.83475363913289        3.54533557542835       -0.29421571123108
C           -3.57932488175437        4.12141654439946        0.75239517189580
C           -2.87805527888091        4.59159567041845        1.97431836773774
C           -1.97119747977829        5.64896947934135        1.91295814632278
C           -1.29687512080706        6.06404378085397        3.03917959125896
C           -1.51322977490762        5.43244025903913        4.24757019892723
C           -2.40697285692555        4.38305654682515        4.32680836006387
C           -3.08294135232115        3.96481235909678        3.20250646015398
C           -4.97343339026374        4.25786271249784        0.62040495856819
C           -5.71047572872302        4.85306831114701        1.65435994617719
N           -6.31060145949853        5.35442308644037        2.51367409621285
C           -5.61961178332903        3.82246096244812       -0.54750437448778
C           -7.00901732182551        3.95705477573405       -0.67928572634528
N           -8.15990216361863        4.06189542126568       -0.79871509648970
C           -4.88037692795459        3.23331850389842       -1.58899927658715
C           -5.54774328511559        2.75921105093181       -2.82868746213799
C           -5.62357805221590        1.39828056105184       -3.12205707290626
C           -6.21559032688971        0.96176898707282       -4.28584344477747
C           -6.74119064081991        1.87343087172138       -5.17945106379112
C           -6.67483350177603        3.22494550881531       -4.90510087113607
C           -6.08381685212788        3.66551262175795       -3.74213582598568
C           -3.48721816367010        3.08776166566263       -1.45573527076927
C           -2.67273674474645        2.44127967188312       -2.51897535029133
C           -2.21015182961858        1.13408120520603       -2.34912525994934
C           -1.30344421663301        0.59219526053422       -3.22393894166789
C           -0.81189839612125        1.34233152976135       -4.28887834213094
N            0.29641499709631        0.85004608497123       -5.06569357544436
C            1.61666368756121        1.31943954577342       -4.89419371759643
C            2.10512735496760        2.39471052099131       -4.15445121661410
C            3.46045870376674        2.60989939526806       -4.11806279182514
C            4.33968058590921        1.76889432083289       -4.80497896624208
C            3.87365126487283        0.70017704848028       -5.53347111696239
C            2.49801815252962        0.46974504179120       -5.57901855911120
C            1.69768214975873       -0.55860302267525       -6.20232147734472
C            2.04640832577721       -1.65696678408649       -6.98644764906751
C            1.04786783425765       -2.48433610792363       -7.43632686543019
C           -0.28927473300942       -2.23093782019358       -7.12296342209213
C           -0.66783522641126       -1.14735169342511       -6.35521133578452
C           -2.09696922847063       -0.88654671175610       -6.04433324113156
C            0.35217541752340       -0.30750152291783       -5.87526958753347
C           -1.30165080061817        2.63051945019834       -4.48820201492617
C           -2.22373543183615        3.16828939553707       -3.62459519125725
C           -0.53839312172672        4.18531985977106       -1.04424740844784
C            0.81994517924721        3.99935016488680       -1.06236842633190
C            3.52869223510932        1.71226424374651       -0.85918228319085
H            1.43843684966863       -0.56405367336100       -2.29036396234574
H            1.04583739042881        1.07628921455323       -1.79603379417243
H            1.24204357729558       -0.18889929397835       -0.57838930729741
H            3.68669538176650       -1.30378910728187       -2.33378418853831
H            6.08899956238284       -0.81826060470594       -2.22390594370284
H            6.88985422251604        1.30816981974825       -1.26322570856871
H            7.17725364034881        3.70851399234981       -0.19935849338633
H            6.87571414869655        5.95546751527980        0.77377662408876
H            4.62580701024612        6.80906203631160        1.27103782164813
H            2.63248814787854        5.42992745164781        0.80644668574241
H            1.07238618217760        1.57357014331843        1.25962294842965
H           -1.37281678897201        1.89430573797367        1.28550561233122
H           -1.80271192763997        6.13549962025399        0.96772820186644
H           -0.59824377306217        6.88229573668378        2.97685695035193
H           -0.98461404589870        5.75825349033474        5.12848584427551
H           -2.57551486655516        3.88987994148609        5.27014822971652
H           -3.77642444501817        3.14350689236458        3.25788390333232
H           -5.20950055860295        0.69164474278062       -2.42374038895886
H           -6.26715316797269       -0.09316503075510       -4.50018878854638
H           -7.20321861461715        1.53022234174043       -6.09065496354197
H           -7.08653476729306        3.93643357805155       -5.60209470060579
H           -6.02626182789380        4.71814832670429       -3.52485753865783
H           -2.54361728273808        0.57111548153495       -1.49448570593963
H           -0.92428649134187       -0.40300675356086       -3.07175144661365
H            1.42113668177536        3.01886723975796       -3.60903763249083
H            3.85345682025946        3.42652429063079       -3.53527246890704
H            5.39960505268519        1.95488985019259       -4.75157419217357
H            4.54588247157141        0.04166575630352       -6.05431709357222
H            3.07925791923298       -1.84200939486704       -7.22306242037726
H            1.29765945502526       -3.33966387851240       -8.04222632008173
H           -1.05228614733389       -2.89468798711457       -7.49197423019801
H           -2.75275531574165       -1.33769480926315       -6.78975694229339
H           -2.30315301833207        0.18386489091894       -6.03000849268185
H           -2.36373851926341       -1.29676360614570       -5.07007814072741
H           -0.91837433852519        3.20926693171746       -5.31023330081892
H           -2.57123419043119        4.17801347769209       -3.75902381134790
H           -0.99455493696266        4.91495850851711       -1.69065090514109
H            1.44534845746487        4.58635400759819       -1.71187339057238
