36
 energy: -7.472282983971 gnorm: 0.000856966990 xtb: 6.5.0 (97a52f5)
C            1.20974557528948        0.15474538847007        0.85062679828112
C            2.61535683176192        0.09120971627749        0.38519999176832
C            3.30225978468159       -1.09420063595198        0.29323943426686
C            4.64247369939122       -1.14729296474053       -0.12437089311903
C            5.32391071389895       -0.01033406776232       -0.45012214720285
C            4.65468560816817        1.22236732943739       -0.35632430773738
C            5.05907036072778        2.54398229173756       -0.59164672272437
C            3.97533958676598        3.35432050349912       -0.31616547512994
C            3.93534287257121        4.81020842256853       -0.40723476907500
C            2.78659276576328        5.44350410419698       -0.09117503789997
C            2.67844915227198        6.85594424691313       -0.15169745642215
C            1.49549181759386        7.52751439195467        0.17443709651663
C            1.43172768581002        8.89319157379773        0.10691666184706
C            2.54418974409761        9.62479121767633       -0.28870657977799
C            3.72437551972514        9.00027152640029       -0.62000662931577
C            4.90876274254537        9.78818598818475       -1.04003745265612
C            3.80818652075566        7.59282207643970       -0.55305877552885
O            5.00293000846791        6.97445589892617       -0.88522766641247
C            5.10431067260938        5.59705847862640       -0.82630155790413
O            6.14482515967885        5.02380007265922       -1.11555588930459
O            2.89178677216294        2.59372289492012        0.07988003083926
C            3.30543987683052        1.28108018424845        0.05969838384373
H            0.62937727802394       -0.68436215441803        0.46724796011917
H            0.73439576675375        1.07512535411959        0.51119242600874
H            1.16194505281130        0.13348114352610        1.93918493909569
H            2.79411760803310       -2.00717998333972        0.55193929302976
H            5.13863676602578       -2.10169492308672       -0.18533307572288
H            6.35112480897468       -0.04002939795885       -0.76783674486566
H            6.02902053975203        2.87286842580837       -0.91607202945530
H            1.93624535296493        4.86124220329864        0.21485597966391
H            0.63524784314471        6.95722981760963        0.48001694900612
H            0.51745870172428        9.40350194365874        0.36115505105307
H            2.48918203890536       10.69866211880628       -0.33990645965982
H            5.25392083383844       10.43282332343522       -0.23150482605458
H            4.67525666255428       10.41478272386117       -1.90110745780144
H            5.73077727492246        9.12764076619901       -1.31792904157004
