34
 energy: -7.067573556859 gnorm: 0.000809832074 xtb: 6.5.0 (97a52f5)
C            0.91225788879192        0.15359171311462       -0.04872049321762
C            2.39885701316359        0.08150894833768       -0.04787555346295
C            3.11396982390922        1.25706515764088       -0.04892118927489
C            4.50615888250319        1.26698747909619       -0.04864527408668
C            5.19765990054927        0.09254523309058       -0.04755556694929
C            4.51933862885775       -1.13949152308823       -0.04663988022151
C            5.25956419361945       -2.35946338741697       -0.04683709462429
C            4.66375352213405       -3.58597226931024       -0.04721806549958
C            5.47868780799126       -4.83012881722377       -0.04845404796838
C            3.24121750720461       -3.62708636563504       -0.04655826273323
C            2.32510388561085       -4.74085112930029       -0.04747970310607
C            2.49098252027571       -6.13331198767032       -0.05011415874741
C            1.37766291899764       -6.93502571144264       -0.05112026927522
C            0.08937431235421       -6.38533379774649       -0.04960946218825
C           -0.09731810995989       -5.02761290736991       -0.04716364845222
C            1.02737190695653       -4.19586820106147       -0.04617335405282
N            1.13223680079932       -2.81224566334002       -0.04445029627057
C            2.47067146647805       -2.44837584376086       -0.04537127007857
C            3.10037911130940       -1.15455879154854       -0.04642407411195
H            0.56548096297561        1.18795396291399       -0.05133696480560
H            0.49850436202749       -0.32058738242916        0.84188677805371
H            0.49934504673251       -0.32472104987925       -0.93750374829605
H            2.58116798197510        2.19283117938324       -0.05010442521566
H            5.03538791709712        2.20599338736207       -0.04948581534715
H            6.27427745049993        0.09646024649126       -0.04762853756769
H            6.33330895363552       -2.30168183232757       -0.04723633161155
H            6.54621651556719       -4.60625831335910       -0.04831820174429
H            5.26972418518652       -5.43090778180630       -0.93443299807404
H            5.26980336882337       -5.43267825722270        0.83633896456067
H            3.47590488735220       -6.56264547175958       -0.05137004414535
H            1.49387220520095       -8.00647899476870       -0.05320095217102
H           -0.76613659636196       -7.04077199760367       -0.05048831445059
H           -1.08162483114808       -4.59427515883747       -0.04608872154678
H            0.32205760889042       -2.19765467152221       -0.04401902331708
