59
 energy: -11.314972706093 gnorm: 0.000713169002 xtb: 6.5.0 (97a52f5)
C            1.12042171969724       -0.97348059725755       -1.17599016412301
C            2.40278900164950       -0.74772111307383       -0.47221518334630
C            2.76026951734470        0.49119452144377       -0.04547316091710
C            3.99603635827692        0.72988201014050        0.60225777972187
C            4.87363687408631       -0.28012100974881        0.81296580649599
C            4.52912766011839       -1.58001411157682        0.37970036653160
N            5.25271530950503       -2.68594181189119        0.48823089235909
C            4.51411305627456       -3.67738055943949       -0.05528111257022
C            4.97905036614656       -5.05379013924106       -0.17657692569588
C            4.30305042930965       -5.95063987534498       -0.97095968427703
C            4.73262950408601       -7.28530477514926       -1.11444976970347
O            4.11890955029331       -8.10008250510189       -1.81849452307823
C            5.92544512252982       -7.65707841674758       -0.38861239805694
O            6.42812023901035       -8.97781239087710       -0.48030640987602
C            6.10367734553914       -9.77811447018275        0.66271773082478
C            5.36581163927513      -11.02891926227649        0.30083409211082
C            5.61486662718291      -12.22707686108006        0.95047732902108
C            4.91393089923843      -13.36540279220129        0.60947084166649
C            3.95427447309719      -13.31612453810660       -0.38028478691151
C            3.69515509539950      -12.12642919375590       -1.02799707693184
C            4.39779068426141      -10.99098289910067       -0.68515057227402
C            6.53673311966929       -6.70601322497251        0.37482996545966
O            6.10863792130578       -5.41340109762762        0.51424020149267
C            3.27523679342236       -3.17306479191255       -0.50867802216745
N            2.18874846907094       -3.93539732152895       -0.99855442343857
C            1.19255791797421       -4.52586590517390       -0.07570264544820
C            0.31072223561675       -5.56725003144792       -0.79456074733714
C           -0.75577433482351       -6.14868961563063        0.15227262420955
C           -0.10627018646602       -6.76031253038181        1.40864472752961
C            0.78108358986021       -5.72736426873356        2.12935216436686
C            1.84325339900522       -5.15508703058832        1.17367594603800
N            3.29010935555020       -1.81706642476279       -0.25164956783989
H            0.56224301459728       -0.04405824608743       -1.29322081084617
H            0.49030732043676       -1.66874116840205       -0.62318723037571
H            1.29314941044323       -1.37948024673317       -2.17248644183323
H            2.08885811366600        1.31574392354189       -0.21092980806908
H            4.23956960520207        1.72846266495694        0.92566864095334
H            5.81794306879280       -0.11721135282207        1.30058069159614
H            3.42153125513642       -5.64588209852189       -1.49932059084917
H            5.50385223017739       -9.17731772449012        1.35538062596262
H            7.04439769563674      -10.01696445490319        1.17058729342983
H            6.36222870751301      -12.26297035665650        1.72445077906112
H            5.11644646365937      -14.29418011444557        1.11727062487305
H            3.40749322241121      -14.20576479695229       -0.64706352440391
H            2.94596170620727      -12.08318655579902       -1.80144275723079
H            4.21288370142270      -10.05507797352343       -1.18594182644674
H            7.43016582255594       -6.96752248605799        0.92026921095974
H            1.70099969058200       -3.56145527564367       -1.80778671353823
H            0.54243874299268       -3.70900249521889        0.27383403737006
H            0.95542051899583       -6.37140427201026       -1.16446239274558
H           -0.14855475986249       -5.12441430368376       -1.68677313723549
H           -1.37393219536109       -6.89264576873959       -0.36836743344888
H           -1.44657055174629       -5.35171345465972        0.45251501100537
H            0.50599580795697       -7.62206998789304        1.11654348743810
H           -0.87137053977907       -7.15947435728448        2.08857127638223
H            1.25304839590615       -6.16901735582921        3.01753967617584
H            0.15418399781258       -4.91013681898976        2.50564956046504
H            2.51497529147292       -5.95711633717999        0.85310031410257
H            2.48050451060286       -4.41978555266399        1.67974814337980
