65
 energy: -12.947282891256 gnorm: 0.000929076872 xtb: 6.5.0 (97a52f5)
C            2.42688936107877       -0.04428356643784       -1.29977813526898
C            3.28353112288563       -0.29567042641364       -0.11911501294498
C            3.79042637188253        0.73200865480933        0.61136476191530
C            4.62512686610409        0.50818306139388        1.73139450966521
C            4.95308196027334       -0.75063084026722        2.11075602557941
C            4.44616568695639       -1.83758198212799        1.36599122161293
N            4.65588483164966       -3.13248038420164        1.57846581316705
C            3.96870826861046       -3.78895810336314        0.61862107366421
C            3.97111890887556       -5.23954199768012        0.46944823031015
C            3.51386354829175       -5.85387962139761       -0.69676888655790
C            3.52585534509290       -7.21883596477289       -0.83244674164600
C            3.99907219410649       -8.03075454480952        0.19992604069546
C            4.00850183412863       -9.49676982021880        0.10731987495991
C            4.00721211271030      -10.13179919732176       -1.10250871329979
C            4.00952121133187      -11.55079152353854       -1.18495316657871
O            4.01074086347909      -12.14438394165344       -2.27492674392007
C            4.00744139344312      -12.25210864831353        0.05311290447419
C            4.01511792994916      -11.58251402997136        1.24263503698433
C            3.99966546816949      -12.29653267870274        2.53041610178898
C            4.33254766596911      -13.64493127520209        2.64999039359152
C            4.30185200376301      -14.26950552719006        3.87766968588862
C            3.94374217806787      -13.56332860500570        5.00809624490425
C            3.61950455332145      -12.22571346571540        4.90835428440220
C            3.64909633163722      -11.59991643203397        3.68180963852440
O            4.02406389670494      -10.20195234501609        1.29524477454073
C            4.45333136323444       -7.41878938897874        1.36650434130565
C            4.44786428275551       -6.05203941806054        1.49740835680744
C            3.29093526978921       -2.86954200969444       -0.21794478221171
N            2.35497727908102       -3.18606938747103       -1.22771486395222
C            0.93527819948578       -3.47805054170261       -0.90925354632321
C            0.26371906335575       -4.28107129062318       -2.04218001150851
C           -1.22049579635443       -4.55476359366328       -1.73575015201506
C           -1.38305764333975       -5.27830223999300       -0.38521210540376
C           -0.71574156362616       -4.48063816408979        0.75112570683835
C            0.76693871025505       -4.21396516175686        0.43670699223702
N            3.61113817159410       -1.60936814494010        0.25362849011638
H            2.20493046241351        1.01749043835889       -1.41182113335915
H            1.47726288409835       -0.56957256948028       -1.20895492160012
H            2.91987572720407       -0.37761723069685       -2.21297675085825
H            3.55206286465811        1.74267307314603        0.32870878384687
H            5.00282306739899        1.35154682075502        2.28567995079314
H            5.58504053773743       -0.93963530892231        2.95970375393527
H            3.13905189618437       -5.23550066833816       -1.49072634039400
H            3.14201435235543       -7.66851529003779       -1.73084963729388
H            4.02417337575258       -9.57250298354973       -2.01722378926768
H            3.97830414295596      -13.32328767970992        0.02277974443797
H            4.63237371840350      -14.20055363203570        1.78006115686528
H            4.56060022358513      -15.31245007139383        3.95673728276997
H            3.92053382792127      -14.05482299962792        5.96690401800714
H            3.34429201338035      -11.67105572495056        5.78991910757755
H            3.39999807881335      -10.55658125689379        3.59530153114933
H            4.81234221749629       -8.04177361744330        2.16739546539434
H            4.80592241473372       -5.58837720451177        2.39966169603707
H            2.38954845550676       -2.62123278360558       -2.07230830695533
H            0.41111411989823       -2.51410279507005       -0.81746130175877
H            0.79706696899223       -5.22970716160637       -2.16078733114168
H            0.38223758445589       -3.75653161047107       -2.99822984127707
H           -1.68413101152071       -5.13386960670559       -2.54595792607027
H           -1.76590657100171       -3.60392662236218       -1.70602140467381
H           -0.92309348466527       -6.27192502759783       -0.44871554200087
H           -2.44406432776443       -5.45872006660201       -0.16435340273905
H           -0.82176751659333       -5.00494260658244        1.71073048387876
H           -1.23734480673579       -3.52457502173728        0.87936607118845
H            1.30502407429596       -5.16513816451969        0.38687461429869
H            1.24788546545337       -3.64423008161219        1.24116632687343
