31
 energy: -6.322544294990 gnorm: 0.000958472932 xtb: 6.5.0 (97a52f5)
C            1.00336170504555        0.27995006824194       -0.06728116384341
C            2.48573376112745        0.13143779172507       -0.06594140230396
C            3.22252768751490        1.29828541771845       -0.06505409618775
C            4.60616601020270        1.29052874443097       -0.06454543321328
C            5.27203031591247        0.10100545866591       -0.06506226783475
C            4.58063973761476       -1.11539359663014       -0.06586501025102
N            5.34499391134774       -2.25014643606979       -0.06630165055051
C            4.72512452186297       -3.40225990499280       -0.06630735936335
C            5.52743286797182       -4.61085594625853       -0.06611232091624
O            6.74699568983002       -4.58542367110238       -0.06579786275568
N            4.82023872643043       -5.80547091134297       -0.06616835124909
C            5.55455442261464       -7.04831607229318       -0.06598177946386
C            3.42280667920316       -5.85135180136649       -0.06597886838587
O            2.87684800341403       -6.94634832834672       -0.06623606340068
N            2.68474260718221       -4.70062195128891       -0.06555446163545
C            3.30995244628878       -3.53685270327105       -0.06603128774279
N            2.54225813968408       -2.37662365805889       -0.06585909437606
C            1.09691440195599       -2.58679740291042       -0.06378895607325
C            3.16284009470661       -1.11879117692172       -0.06600605882027
H            0.71579970458367        1.33211813627985       -0.06800844647572
H            0.55822658416268       -0.15920125995043        0.82435723038103
H            0.55987132303890       -0.15994104862461       -0.95937700855688
H            2.70679084641707        2.24353344032788       -0.06486665418109
H            5.15296659673473        2.21937863687862       -0.06387248113490
H            6.34814120248116        0.07612421730623       -0.06477477839229
H            6.62460293931836       -6.84495837657987       -0.06577658621667
H            5.29538893962705       -7.62471624171422       -0.95221614159602
H            5.29504908961809       -7.62462548852164        0.82021519959642
H            0.88145014369865       -3.65334532239029       -0.06318476779625
H            0.64660753823950       -2.16729046299849       -0.95944308665618
H            0.64932336216984       -2.16677014994136        0.83299100939582
