60
 energy: -10.242208322060 gnorm: 0.000365417672 xtb: 6.5.0 (97a52f5)
C            2.10594800586059       -0.22248690558238        0.48643860308192
C            0.66366790499480       -0.07284339519643        0.14958388291168
C           -0.14506587570986       -1.19196508839105        0.07068334976620
C           -1.48504958455500       -1.08396281779386       -0.23985277602787
C           -2.03896427813894        0.15475550208505       -0.48227369116503
C           -1.25387788449775        1.28060114637039       -0.42091440870091
C            0.10617683750375        1.19425361900047       -0.11297330118333
C            0.93561022237850        2.42780207301660       -0.06524225852779
C            0.84990851212480        3.31259752232062        1.02837640538955
C           -0.02395374158800        3.07721786286562        2.11585671550967
C           -0.09057933422851        3.93506374410138        3.16482664907414
C            0.71618074996747        5.09703899201839        3.20705822745180
N            0.64473501266693        5.97487902507530        4.28239712351727
C            1.47398297770931        7.19879103083384        4.43866936616765
C            1.17989861961003        7.76122282907868        5.83890226624767
C           -0.15282579341482        7.12113572358578        6.27223621014686
C           -0.29437849136573        5.84362399334939        5.42774248781689
C            1.58083778553363        5.33578964322284        2.14914628768033
C            1.67290193105139        4.47315189285352        1.05748482518040
O            2.55866633345340        4.77180752576084        0.04799465359372
C            2.63487035414221        3.90768858958361       -1.01977143400386
C            3.52696191718100        4.19124483249511       -2.05331516251632
C            3.65701105545228        3.36821791106702       -3.16216724674757
N            4.56287974454055        3.66902697701282       -4.17260918780681
C            4.84392291213503        2.80189201675606       -5.34722398805622
C            6.05601471678662        3.40867992898368       -6.07357226844600
C            6.17567263412037        4.85269698785129       -5.55002663531449
C            5.44473042317592        4.86546537749718       -4.19758837199056
C            2.84471235259224        2.21184778882356       -3.23797432662283
C            1.96823182029461        1.90878969546706       -2.24789094977113
C            1.83578415774759        2.73336015183716       -1.10581461877402
H            2.25790455313238       -1.02391929717195        1.20961667443256
H            2.50699013062926        0.69299309672540        0.92132262997907
H            2.68955250729146       -0.45599563358202       -0.40410173327040
H            0.28477543963652       -2.16089399962860        0.25783654056426
H           -2.09852406588061       -1.96814949879736       -0.29267819844245
H           -3.08586794408328        0.23924508312292       -0.72301948688604
H           -1.67953360406844        2.24924735582923       -0.61794890593923
H           -0.64120289245993        2.19660066713981        2.10136446967148
H           -0.75881503586252        3.73243951903957        3.98209583054042
H            1.19556968922333        7.90681724223807        3.65302564982820
H            2.53035418424821        6.94665530460854        4.30818051017088
H            1.13156767141482        8.85687684777826        5.83862444316452
H            1.97851154920242        7.48241263585841        6.53585853731815
H           -0.98499607008888        7.80505683393087        6.06958853207651
H           -0.17783531051390        6.90660949548856        7.34748063821815
H           -1.31305827031078        5.70640508351094        5.05354751905242
H           -0.02069206955842        4.95119325781362        5.99769128796408
H            2.20340397357480        6.20914639660439        2.15264489636483
H            4.12828450271507        5.07540507362483       -1.96923625474253
H            3.95604844667895        2.78838552049358       -5.98563071829517
H            5.03411489836333        1.77863466027504       -5.01074828975948
H            5.94086306701327        3.37268783939378       -7.16362007446794
H            6.96407680653641        2.84293067134351       -5.83549138829804
H            5.69726563052264        5.54983077680329       -6.24730958618513
H            7.22044586548740        5.17192270435764       -5.45419310073488
H            4.84311635367570        5.76871235007175       -4.06097931370348
H            6.14509474855483        4.79545219623174       -3.36064806855294
H            2.92374846988202        1.57277523287170       -4.09869882283014
H            1.35443477751139        1.02885840808129       -2.32368064512982
