66
 energy: -11.072360318188 gnorm: 0.000394314845 xtb: 6.5.0 (97a52f5)
C            2.14504709108807       -0.19550936210511        0.17819838903285
C            0.69202228724214        0.07713178531387       -0.00020551515735
C           -0.18952038115051       -0.98301764633491       -0.08026791831895
C           -1.55100803427062       -0.77836312381168       -0.19889525742206
C           -2.05532038742589        0.50616996957154       -0.23749242744695
C           -1.20376111318328        1.57957499745655       -0.16863724590258
C            0.18747650768738        1.40261513683249       -0.06094611154104
C            1.07877765342276        2.58252848771396       -0.00301632171969
C            1.00304311886727        3.50587920500098        1.08277431218138
C            0.10093847084648        3.33212403345146        2.14412063699061
C            0.04970454459409        4.21402271901196        3.18871323439280
C            0.90224956334382        5.32742429889220        3.23616139199614
N            0.84918720637399        6.24895073170402        4.30682248227861
C            0.20640455470692        5.92644664815083        5.59787675210373
C           -1.15431418291254        6.61953883872438        5.70867106243901
C           -0.99584318449874        8.13888381488500        5.52586899677016
C           -0.26586150424267        8.46485684954289        4.21028085828943
C            1.06139437078820        7.70244091116591        4.10680047252385
C            1.80961698835176        5.49987953703280        2.19259289728094
C            1.88564169657968        4.61665400888910        1.12392635110309
O            2.83352475407948        4.84709847817519        0.13776226988350
C            2.89709063159870        3.96045086580576       -0.92717592340756
C            3.82820611825895        4.19189957479038       -1.93074567110302
C            3.93617959445213        3.36822443349810       -3.04972366658071
N            4.89318624433673        3.62552934907832       -4.05769116589521
C            4.62465922221428        3.36464091192775       -5.49178270624820
C            4.42845247745793        4.68035834421251       -6.25576704823380
C            5.61470764208532        5.63579217801819       -6.03344999102948
C            5.88216718978990        5.84382406890223       -4.53275830031242
C            6.06777655596627        4.49447623983795       -3.83338079775071
C            3.06105219306684        2.27578869258713       -3.14768293535548
C            2.13956549451694        2.02162579113389       -2.16888619427632
C            2.03705206040538        2.83638105834363       -1.03036002594569
H            2.30682368699992       -0.93245808987512        0.96512789106527
H            2.68973563350063        0.70603135784311        0.45771529125170
H            2.58397502358486       -0.58365707210269       -0.74103265021835
H            0.19843673309299       -1.98625107568908       -0.03838534019863
H           -2.21940080277659       -1.62145312603776       -0.25535470881917
H           -3.11737248847189        0.66519834791451       -0.32580045606647
H           -1.59354795132104        2.58163620253074       -0.21461689083778
H           -0.55863247320904        2.48311855787830        2.13136086072644
H           -0.67519005895457        4.06955032027662        3.96883060436366
H            0.87160748185583        6.27171230983091        6.39517742881461
H            0.13395339318942        4.84163805798694        5.71894226974907
H           -1.63738404059876        6.38398920970979        6.66631839117472
H           -1.82193053767162        6.22912446034031        4.93210025837058
H           -0.42704642312768        8.54911396468994        6.36852718747937
H           -1.97412715035671        8.63703237742292        5.56038054410101
H           -0.09841659453531        9.54620135049831        4.11647781294858
H           -0.90477510628867        8.18877939137558        3.36340628188638
H            1.76830481106522        8.05135920695729        4.86507710591494
H            1.53548991518333        7.87611911606259        3.13725533291719
H            2.50891108963661        6.31261053936025        2.22002667001681
H            4.45038428051107        5.06068856917122       -1.84105220802703
H            3.74694135269209        2.72108982175914       -5.59288123531379
H            5.46994938060870        2.80295483473502       -5.89983096810304
H            3.50635236699038        5.16141525580430       -5.90938011913992
H            4.27954573956481        4.48762381898150       -7.32664764543543
H            5.43705925422593        6.59793456223483       -6.53264163291397
H            6.51088816749206        5.21951780639322       -6.50840683526152
H            5.03229082183075        6.36928955192992       -4.08237723991571
H            6.75465884336503        6.49127078422047       -4.37289070208156
H            6.25338621785781        4.60264796464083       -2.76076076141696
H            6.94431873574097        3.97811001124646       -4.23644903946320
H            3.14279342335514        1.60823246857292       -3.98603729266534
H            1.47433183053307        1.18244731594304       -2.26713308852796
