94
 energy: -15.781679128235 gnorm: 0.000345310521 xtb: 6.5.0 (97a52f5)
C            2.06675679711575       -0.15535107951488        0.12383139097683
C            0.61577616317190        0.13998193401227       -0.03359357196080
C           -0.28320123651302       -0.90539832811925       -0.11252537332364
C           -1.64224712778264       -0.67780339452707       -0.21582792564411
C           -2.12608420540369        0.61498373295723       -0.24010233304275
C           -1.25681536163348        1.67422673970550       -0.17238942203860
C            0.13225226817377        1.47373785740819       -0.08053180501517
C            1.04673447551715        2.63654193767225       -0.02968231293849
C            1.01811619513553        3.54689614047401        1.06934175768769
C            0.12805807652811        3.38886687202522        2.14333435685017
C            0.12098353665332        4.26050583680618        3.19793363819575
C            1.01034442410758        5.34482264281606        3.24533340425206
N            1.00470565030606        6.25486965885883        4.32670002262051
C            0.38526066287564        5.94241251641515        5.63068789156639
C           -0.89359538994003        6.75106160690118        5.81352406413013
N           -0.59457030593497        8.17360597852350        5.61667423119313
C           -0.54715802758401        9.04712062012804        6.70779775722082
O           -0.12053880735153       10.18049702520874        6.55966392458304
O           -0.99128487310905        8.52646029848049        7.89654212528391
C           -0.91358758805038        9.43234341454373        9.03133172928395
C            0.54514542989919        9.83483929020268        9.28317017224760
C           -1.78650502670355       10.66832854474309        8.77949623395919
C           -1.44919634982138        8.67332569043383       10.25496063956360
C            0.05693867569186        8.53508614571117        4.35365715841858
C            1.31415048170897        7.69232383207332        4.15261185236066
C            1.90648760950482        5.49944282316401        2.18934443345368
C            1.93591124801024        4.62853013960788        1.10854188270601
O            2.87358616765546        4.84297865814282        0.10916439100688
C            2.88257292937364        3.97703240262532       -0.97414294553010
C            3.79466458765124        4.20048999330347       -1.99688478326987
C            3.84744871886565        3.39655558106533       -3.13389931441117
N            4.78276352873623        3.64635818951240       -4.16409217660931
C            4.46784554037555        3.41709443875791       -5.59257715129319
C            4.38162184540614        4.74621566369594       -6.33982474290203
N            5.57383539485520        5.55600427675039       -6.06873494410177
C            6.53995595334188        5.74093934889725       -7.06278723392805
O            6.30835440682537        5.38657858433746       -8.20700630625132
O            7.71256762126144        6.31596441610264       -6.64326905024701
C            8.72000673456112        6.48286707375186       -7.67861090715817
C            9.11494516749802        5.11670061458704       -8.25398686475107
C            8.19194975768849        7.40900109302047       -8.78148160235222
C            9.94744913907249        7.12873918675249       -7.01794864842752
C            5.90295640515192        5.78198720458160       -4.65745276673040
C            6.01140762828241        4.43712384625477       -3.94939303867860
C            2.93806850114377        2.33235289649568       -3.22932877139489
C            2.03531308464503        2.08559709351030       -2.23155019871846
C            1.98633328948227        2.88167735313097       -1.07629664691807
H            2.22599393901416       -0.92169643158653        0.88276293182916
H            2.62304324509066        0.72986291482694        0.43161994308229
H            2.49461949557818       -0.51477940355958       -0.81214884532427
H            0.08897462389631       -1.91507648434464       -0.08353273144626
H           -2.32466865597130       -1.50959754239168       -0.27277259131894
H           -3.18632713785940        0.79122401747142       -0.31711914622542
H           -1.63104359981712        2.68261325940263       -0.20879969892351
H           -0.55888643581293        2.56167472734368        2.13133867714067
H           -0.59883420382055        4.13282399401639        3.98563226417939
H            1.10604672622679        6.20382418151097        6.41142264710254
H            0.21504255458697        4.86597776161942        5.72299242381625
H           -1.32764737763153        6.61238118144445        6.80992710225165
H           -1.65169921680986        6.45147684350881        5.08363283145698
H            0.94559713433778       10.36881622106837        8.42382770362278
H            1.15962551865611        8.95121195738692        9.44393077285491
H            0.63078089313320       10.47857334389855       10.15702027950854
H           -1.42417498021093       11.21921157404410        7.91393038100274
H           -1.77956925500922       11.33696526530890        9.63872528595485
H           -2.81452616705400       10.37188304730669        8.58067130955414
H           -0.85517582279674        7.77934127537049       10.43462044008157
H           -2.47741774119305        8.36023626471498       10.08448026915864
H           -1.42012408477883        9.29330699543461       11.14956207448138
H            0.28583568559700        9.60650981772241        4.37576425189353
H           -0.65418449129835        8.37241652224091        3.53786177824727
H            2.08125662616836        7.96739596593454        4.88232322507737
H            1.74278572459452        7.86482214321027        3.16198375215360
H            2.63417085764149        6.28690475328193        2.21492101596871
H            4.44385271429697        5.04954413975211       -1.90894557489012
H            3.53067239201402        2.86128736602154       -5.68132176542598
H            5.25305610399965        2.78622002998996       -6.01898986463209
H            3.49937837609506        5.31214473309142       -6.02513424523895
H            4.30236746099888        4.59823344028165       -7.42273707977501
H            8.25611205601657        4.63824628442074       -8.72026857821609
H            9.47410402056987        4.46153974600725       -7.46278562539795
H            9.89940039831197        5.21667003437590       -9.00232136493858
H            7.31697375146945        6.97156569664698       -9.25797137258833
H            8.94783129996276        7.58216282011217       -9.54572596256778
H            7.89907744467472        8.36926730093102       -8.36150972545000
H           10.32416993238862        6.49374240220239       -6.21845136007735
H            9.67976518908723        8.08900810771135       -6.58152513002897
H           10.74743140718767        7.28773971867985       -7.73922340232188
H            5.11361023772231        6.39422837042570       -4.21092909647911
H            6.83478262074662        6.35501329137785       -4.59551923875670
H            6.21108492552872        4.54417853713720       -2.87924077344226
H            6.84960495463814        3.86614837911136       -4.36027093744780
H            2.97852142831284        1.68032656446424       -4.08292863945597
H            1.34257563507087        1.26855247908668       -2.32773082997182
