64
 energy: -10.809963426666 gnorm: 0.000731086875 xtb: 6.5.0 (97a52f5)
C            2.08726198516767       -0.09819008243092        0.61685930431046
C            0.67507013099269        0.10473812873852        0.19202507706173
C           -0.17508649328252       -0.98053506524298        0.08152872118224
C           -1.48809149801671       -0.82150635691124       -0.31166534766983
C           -1.97219228010526        0.43485759428226       -0.60715864472583
C           -1.14426579354147        1.52747772851417       -0.51550705201165
C            0.18952425560412        1.38922481150877       -0.12326815299270
C            1.06672229980071        2.58768321331372       -0.04096914859320
C            0.98247727858087        3.46892378806617        1.05546824801761
C            0.06999652224516        3.26197757497863        2.11543339816020
C            0.01062253354080        4.11114932606100        3.17190288339581
C            0.86079290154900        5.24338657347088        3.25281889049152
N            0.79295542307921        6.12962829986202        4.33514142526486
C            0.02139629656399        5.86017730692858        5.55951964947192
C           -1.24480457686259        6.71120136391617        5.55549008001383
O           -0.92292028769535        8.09405091269096        5.45446303534231
C           -0.15612381808448        8.39312880098746        4.29203466321189
C            1.12707124838187        7.56424224015944        4.22883975733942
C            1.76166285250246        5.45117514141398        2.21533312298434
C            1.84850814341928        4.59508069774950        1.11835300565433
O            2.77497067035140        4.86526271529548        0.13774855033088
C            2.85240513320202        4.00316725967818       -0.93172818150491
C            3.78497345076080        4.25988446633230       -1.93589730331965
C            3.92213810341099        3.44317171523880       -3.05121150673881
N            4.86740575233148        3.72541835531167       -4.04452686749502
C            4.70768280777007        3.31349687249521       -5.46119189041013
C            4.45965842359818        4.53294290572954       -6.35994177766126
C            5.55199234359644        5.60124255384182       -6.16937989511008
C            5.71758488235447        5.95940530804893       -4.68253374392220
C            5.97125719618443        4.69380935553177       -3.85969536900665
C            3.07293429446562        2.31202831268801       -3.14900883407703
C            2.15602883664096        2.03601516028149       -2.18775678596831
C            2.01237316256788        2.86182653798691       -1.04934556607310
H            2.16259119545121       -0.89501484567662        1.35696906616142
H            2.49869333107057        0.80608290330680        1.06505331639684
H            2.71291697081274       -0.36695644649155       -0.23410628451664
H            0.20035273488326       -1.96319497294848        0.30988386801955
H           -2.13533842690932       -1.67968523620701       -0.38709694321356
H           -2.99805183457423        0.55949521837202       -0.91253520549376
H           -1.51471244383695        2.50974127007777       -0.75288999729737
H           -0.58789418038144        2.41214847652709        2.07086874986375
H           -0.71840297024562        3.94101155802803        3.94238899284498
H            0.64722898177205        6.13378157077538        6.41455324174156
H           -0.18703681431633        4.79197436073080        5.66454997716281
H           -1.84092136523911        6.57150700926424        6.46675091561069
H           -1.88332915867331        6.45691116330129        4.70155637754566
H            0.05308425711987        9.47073633695944        4.30593153697969
H           -0.78997040102741        8.19567187924988        3.41963167149658
H            1.79040624348867        7.82422237838111        5.05884105983464
H            1.67860090916329        7.76521917389702        3.30698560660996
H            2.45478920942640        6.26820491167144        2.25774574394939
H            4.37941481525251        5.14655366932746       -1.83820663049077
H            3.89020221723267        2.59445110589666       -5.55263966067293
H            5.61714195138612        2.78725719957362       -5.76631625488297
H            3.48281884843558        4.96604011057793       -6.11454661703524
H            4.39430668280447        4.22892741140833       -7.41321403703741
H            5.32512816431696        6.49848355547034       -6.76129202291807
H            6.50362435585850        5.22336507129081       -6.56147181707167
H            4.80296119944464        6.44424366206438       -4.32240635167189
H            6.52391248832625        6.69078718067022       -4.53801847884908
H            6.11820270060633        4.90754513632099       -2.79757269095405
H            6.89399055876097        4.20867731837146       -4.19224063357552
H            3.18534098744232        1.63750633383036       -3.97753473111609
H            1.52394661108070        1.17058201948693       -2.27969551236389
