72
 energy: -10.667145544381 gnorm: 0.002752215669 xtb: 6.5.0 (97a52f5)
C            1.80676212017292       -0.47367292398997       -0.75391424994607
C            0.61605473135933        0.22213418996344       -0.19073716798170
C           -0.63655661669658       -0.35841177599678       -0.30784726066921
C           -1.75959804429397        0.25101904606971        0.21523069610907
C           -1.64568880218671        1.46024162214332        0.86825930743954
C           -0.41313252280593        2.05885691131733        0.98802065866029
C            0.73006803433199        1.46545850309911        0.45657313084622
C            2.03163009670092        2.16654311196549        0.60506434605027
C            2.74407203776721        2.53136717245789       -0.53604573983597
C            3.87368702555457        3.26022956305398       -0.49341091923919
C            4.60382371342269        3.69090871611716       -1.57130680409618
C            5.40614462436064        4.77906964225775       -1.60109314468236
C            6.12497480579024        5.19766861615272       -2.69781698155828
C            6.14329086449004        4.59377236613758       -3.91069519591800
C            5.41300568877257        3.56856803222982       -4.35846060649157
C            4.12852711548545        3.62239048666433       -4.54552095622931
N            3.94532197158640        8.01349160415239        1.01502491082510
C            3.33538104252409        6.92532478437403        1.18136095256351
C            2.11700402712091        6.70979590344104        1.66690456611746
C            1.51890711023280        5.51246924623785        1.83381828163910
C            0.27795566026856        5.35424418383502        2.32425765013131
C           -0.63130352502951        6.38254875678436        2.77210823213680
N           -1.20799699463464        7.21886667454129        1.77737473090504
C           -0.29480163734573        6.99290385763669        4.03214886765455
C           -0.60049494407165       14.39594381494785        5.39272010768460
C           -0.54066976959828       14.09494447987884        6.63548583467312
C           -0.83463194854904       12.95085794892385        7.23830879360847
C           -1.26780886815972       11.78853457982779        6.76696521539194
C           -1.53726649245056       11.42659140333455        5.52798219409782
C           -1.95462669407761       10.26764141292145        5.13397696463332
C           -2.42710759777831        4.37090923024931        5.49009038653184
C           -3.26952558180503        5.10339126188106        6.04135538974926
C           -4.43847908310538        5.78311696536720        1.97353437878486
C           -4.57958659303935        7.01814348623528        1.81681541306304
C           -5.21512349703485        7.62783653534872        0.76939832181147
C           -5.35071312725342        8.95334502435086        0.52939161350534
C           -4.83450198842245        9.97322756331303        1.30685250564098
C           -4.11145009845456        9.78426232837530        2.41859375316567
C            2.09766885596026        6.02465795150829       -2.69875725637481
C            1.21259677715137        5.54148985450091       -1.88315464167770
N            2.44138744148038        2.48792585877060        1.78299470709131
H            1.70147822988277       -1.55632053006891       -0.67344111504539
H            2.71697772286332       -0.19391144531060       -0.22257598416919
H            1.93985871040858       -0.22743974774119       -1.80789889078368
H           -0.72734084937701       -1.30496203440295       -0.81322024576854
H           -2.72416203115973       -0.21980900379934        0.11608047939382
H           -2.51969493549202        1.93676297757123        1.28153979462465
H           -0.31498876096792        3.00596394050958        1.48955398157908
H            2.34699132751599        2.25735581362148       -1.49754290338923
H            5.47330219697306        5.35919004767153       -0.69468369370579
H            6.74725246364525        6.07171967982231       -2.58804589032457
H            6.65734190713564        6.40723682849669       -8.20208581349995
H            6.18300993956905        2.06720217930914       -4.48050514725950
H           -0.42337860356396        1.57192364656716       -2.72948483855686
H            2.07470632570749        4.63166952611102        1.56042234532303
H            4.03602062095300        4.50278655313390        5.55924843926006
H           -1.96254087410359        7.79078696964337        2.13622747741890
H            3.05316136810146       17.23278970838361        5.33656015510372
H           -4.35508661022590       14.48676422141693        6.93916342892545
H           -5.60455397382985       10.64910179518776        8.51693588101341
H           -0.11827025356185        6.28189958872578        4.78502465787432
H           -3.30742916124225        4.86199166010538        0.86406187571516
H           -5.90044348833753        4.74714871804442        2.10806127760645
H           -2.51901336560011        7.70158628751049       10.01084503682278
H           -3.73408114713156        5.28869354592568        3.53921049117614
H           -7.18722705304394       12.41045295152686        4.70172235339670
H           -6.52289390276622        8.36847067938516        3.56282822687708
H           -5.91057569443014        9.22574987094522       -0.35141044321684
H           -5.02331565122043       10.98888474540550        0.99348277728807
H           -3.71429389224731       10.55738412449646        3.00872650284474
H            3.06893233763539        5.63865806458487       -2.80584703349904
H            1.38512779814597        4.72686062755702       -1.24289416827779
