18
 energy: -3.262019287202 gnorm: 0.000401187896 xtb: 6.5.0 (97a52f5)
C            1.84623163245421        1.48249170671024        0.00298437150055
C            0.57430594271238        0.70334338230838        0.00224849338900
C           -0.64614723332558        1.36688069542853        0.00344788399800
C           -1.83590457468273        0.66926887777360        0.00213327911934
C           -1.82246723810681       -0.70848964754676       -0.00036606490012
C           -0.61933139124208       -1.38276870256667       -0.00053832826262
C            0.58795213262563       -0.69556244975807        0.00139637476055
C            1.87479330042678       -1.44982231931601        0.00468289044733
H            1.65545361208082        2.55666580942964       -0.00399206018386
H            2.44823701626642        1.24954762539475       -0.87647336380341
H            2.44135351305708        1.25923439818548        0.88958503701867
H           -0.65716724701567        2.44381787696800        0.00582002187169
H           -2.77406724834273        1.20057796705171        0.00282783507908
H           -2.75009995161134       -1.25798346731479       -0.00213841992809
H           -0.60936654030374       -2.45970938427872       -0.00132810037489
H            1.70490354137982       -2.52751856361502        0.00742016776572
H            2.46776716591509       -1.20794870353750        0.88787152150656
H            2.46984356771243       -1.21238510131679       -0.87827153900351
