64
 energy: -14.020858892576 gnorm: 0.003259144694 xtb: 6.5.0 (97a52f5)
C            3.31418989665552       -1.83801823163265       -3.05447576149782
C            2.09519092656629       -2.30325754164564       -2.69729206244906
C            1.55662669088689       -3.48906609976078       -3.30601638608790
C            0.34104580100509       -3.96708832360371       -2.95302405364264
C           -0.43392485979075       -3.31021966932658       -1.97339030324184
C            0.02616717907152       -2.18423890161416       -1.36507643946377
C            1.28611311467802       -1.63559768009012       -1.69162942260291
C            1.73652974915375       -0.47481264751168       -1.04672831582561
C            1.63441394578246        0.60429305286138       -0.15406054055615
C            1.90565437396371        1.73998484616184        0.58111735467246
C            3.19715807113313        2.19530610246345        0.25023826853866
C            3.75363296413671        1.33598358029848       -0.70245546930109
O            5.03764880205048        1.73370602381646       -1.03439985767973
C            5.29103330111295        2.86161517465907       -0.27220268138659
C            4.18486093328452        3.18641228036696        0.53355416610096
C            4.21276480916368        4.28266084596168        1.42329770591479
C            5.33236936955824        5.04764669001862        1.49555138003210
C            6.48116281195056        4.76739882237922        0.69222969832572
C            7.64382305495058        5.55715342653748        0.76430048850581
C            8.73395248256775        5.26835857249078       -0.00868060502527
C            8.71372248208897        4.18193662957008       -0.88407427138674
C            7.60079241967423        3.39462700775813       -0.97941126804009
C            6.46949151105756        3.66978137603438       -0.20054446426478
N            2.82212070508392        0.34670998657589       -0.98183561722621
B            3.54444465494683        1.69294375828551        4.12671098863122
F            3.83737015966608        1.60180494890821        5.46557005340641
F            2.79615670996144        2.78615907432403        3.75928423453761
N            3.42529723086273        0.43347785304081        3.31651042161024
C            4.59226002751862        1.11959834068890        3.09757691907632
C            5.31383032162499        0.40968145928255        2.16378181647679
C            4.54589153663122       -0.73279637957208        1.80079998970638
C            4.48831734500858       -1.87532683707786        0.95871553835865
C            5.35796669191614       -2.39677445927405       -0.01833089021915
C            5.01243944751326       -3.53935745011817       -0.67085314277622
C            3.78762321731920       -4.22012088776219       -0.39392952975555
C            3.43199782328582       -5.40623197446083       -1.05886485931227
C            2.25238106661959       -6.03874914198138       -0.77668577074513
C            1.37834657196615       -5.51691094607853        0.17450551740623
C            1.69201751372950       -4.36449689989386        0.83990769702623
C            2.89298535119765       -3.70128427650653        0.57296042661469
C            3.25555298524107       -2.50169718380688        1.26057919238058
O            2.57036069218261       -1.81058404894010        2.23025091504030
C            3.34713165402406       -0.72443383801257        2.55234419787743
H            3.90413426732683       -2.33680079915803       -3.79568756638587
H            6.01916809869956        3.43793258202066        4.07654947972646
H            3.72309700897228       -0.96086210926401       -2.59807173887672
H            2.14352477193349       -3.99786912983803       -4.05095324754739
H           -0.04425118171137       -4.85807125759342       -3.42082995517851
H           -1.39848713827919       -3.70950072216078       -1.70669864532239
H           -0.56783194715879       -1.69371100284920       -0.61351784115790
H            1.25371283362896        2.18833476636872        1.30868322523025
H            3.35662751730878        4.48070210456800        2.04373813820615
H            5.37192445611102        5.88128048012109        2.17465249303406
H            7.66385935846812        6.39570681656049        1.43879621618771
H            9.61718331400397        5.88226198619282        0.05748913183932
H            9.58158217489554        3.96293214781191       -1.48464728848882
H            7.57538977764040        2.55392321991159       -1.65093937242502
H            6.26242752813836        0.69684108703095        1.74445508919276
H            6.27814068286085       -1.88375728316012       -0.23597669396376
H            5.66949949544017       -3.94907896818052       -1.41801248797398
H            4.10185894693441       -5.81377168188513       -1.79625720044116
H            1.99470738860649       -6.94852282494221       -1.29379170367522
H            0.45089730080037       -6.02398415983662        0.38445723726990
H            1.02505478047084       -3.94991217286084        1.57638939864588
