52
 energy: -9.274463659717 gnorm: 0.000369657703 xtb: 6.5.0 (97a52f5)
C            1.35209839659782        0.24210487643865       -0.49309122029799
C            2.84780233682368       -0.09440161414341       -0.53685739298550
C            3.27588967295154       -0.37562065595639       -1.98013114835986
C            3.65454257918551        1.07458943697241        0.03406916521532
N            3.10147424204482       -1.30414540043316        0.28105276442115
C            4.36598725983831       -1.83892087157403        0.44734950288864
O            5.35716250250582       -1.34766585588407       -0.07194900821166
C            4.48218656046530       -3.07368584317787        1.27087046318212
C            3.68378233281569       -4.14467682512203        0.93210254223272
C            3.89285324754682       -5.40679914016149        1.47617856034718
C            4.94845638043912       -5.62189610430022        2.31254579750723
C            5.79910135018872       -4.56235855855426        2.68208133003270
C            6.96911517586028       -4.80372332052502        3.44031532665296
C            7.83266190328603       -3.79966983040840        3.72780040877622
C            7.54900279313466       -2.45327878092148        3.38300096773996
C            8.50460288733777       -1.38174519720429        3.65176685528137
C            9.81340105975494       -1.71615408475817        4.05666530981667
C           10.73572389549168       -0.88977687404753        4.59413251981396
C           10.47020263153821        0.07577669560106        5.52830204521099
F           14.21342353116070        7.90987781581493        8.38366432391917
C            9.05470971074510        0.93886772717550        3.31952328638463
C            8.11157923923431       -0.03911111923904        3.39410127377414
C            6.70468259286160        0.27896835804973        3.16198472986630
C            6.29214843988761        1.62950339050099        3.24423463163239
C            5.04916360705390        2.11610144220150        3.04003846472612
F            4.55542750783454        3.31387080033762        3.02045470686516
C            1.36286276125314        3.45221778109200        1.70707589292689
C            4.46254254779900       -0.57413808681427        2.94460529520607
C            5.79863322748311       -0.78621859360944        2.91308122384575
C            6.30543538527371       -2.15529837685031        2.79788562286492
C            5.50918089263120       -3.24068566625662        2.25613712723856
H            1.13251886476284        1.12407111580182       -1.09319502060689
H            1.03266284138231        0.44173292579468        0.52860691038622
H            0.75834982085130       -0.58597209417799       -0.87709244202309
H            3.11317165493457        0.49293217548203       -2.61685629922930
H            2.71313739025453       -1.21263955498100       -2.39013589000828
H            4.33303105075274       -0.63449103835062       -2.01550746705845
H            3.51629463268825        1.97787119374136       -0.55843912434999
H            4.71570714274730        0.83079407965811        0.04948397236497
H            3.34461300150059        1.28705140938421        1.05568752222163
H            2.28992281577585       -1.71071318318511        0.74620534445323
H            2.91790258702827       -4.00605050107728        0.18842561255870
H            3.25071242944285       -6.22510670915111        1.19453610809468
H            5.15087810733302       -6.61034241067255        2.68744168027013
H            7.18966744482401       -5.81228118260126        3.74499937296681
H            8.72076709391253       -4.02701905480477        4.28893286572089
H           10.12739410412540       -2.73778220646146        3.92625566795306
H           11.78353775225084        0.28525235577453        7.62996074097843
H            8.88790002893469        1.93322260251307        3.03298942490687
H            7.03575278413615        2.35774965497462        3.51149463860137
H            0.01050133801139        5.42031995674835       -0.10669350676581
H            3.74144045714272       -1.33366706105715        2.88883851784583
