52
 energy: -11.142514767753 gnorm: 0.000611630359 xtb: 6.5.0 (97a52f5)
C            2.03059296040490       -1.55697220694410       -3.12488180240543
C            1.07716023451143       -0.66033381602192       -2.41348329984925
C           -0.09128891837027       -0.27399070938037       -3.04361140264930
C           -0.98574625933136        0.58073998145712       -2.43208543020801
C           -0.72051691457636        1.06759728339308       -1.17001852855911
C            0.42971190074913        0.69404845495448       -0.51917156989972
C            1.34463285162453       -0.18151755620357       -1.11308361746768
C            2.56069656016606       -0.58373516685696       -0.37168564432822
C            3.56142884286417        0.34666288146285       -0.02422661778247
C            3.62376082559960        1.73470261351027       -0.28915398007787
C            4.82304141246432        2.19236263064555        0.25421622159114
C            5.52003005880023        1.09676586792983        0.85625622503602
O            6.70861292981182        1.52433943084273        1.39687545572817
C            6.78905630123077        2.88651023050845        1.15608932650277
C            7.78745579133592        3.80360394804690        1.49982344912184
C            7.63572221273440        5.12005807972574        1.15134075026115
C            6.50477336186036        5.57304011428701        0.45929240140575
F            6.39428278810134        6.88344895774277        0.13606569372235
C            5.50793238891842        4.68878589031665        0.10875685025549
C            5.64721970701410        3.34977089616956        0.45288485896932
N            4.72047147800921        0.00982383318633        0.66105906976056
B            5.06327337681218       -1.41074194667438        1.11393811605086
F            6.20324468144903       -1.83166191991174        0.45603230810973
F            5.22604805890704       -1.42212602836113        2.48623865781583
N            3.90161072277212       -2.33242754253293        0.73870444182917
C            2.77168249094719       -1.91267320623000        0.05050369980204
C            1.92369047612594       -3.03703668216816       -0.08106827666036
C            2.57711694272244       -4.10501158777705        0.53098400409643
C            2.47775799488866       -5.49709124244517        0.86239778195574
C            1.50539732436576       -6.46297950686904        0.63359573587254
C            1.71930512084925       -7.74418506813286        1.09302978069656
F            0.78939463373649       -8.70553225228115        0.88072966795128
C            2.90061686731522       -8.05736912078994        1.77835053907502
C            3.86939329031097       -7.11673733674530        2.01163112040719
C            3.67577013871752       -5.80898057420423        1.55517663965103
O            4.49267131671579       -4.69491594929956        1.66626712625181
C            3.83321383376461       -3.65788121765567        1.05164750811118
H            1.65282901359894       -2.57923884519944       -3.15674928576219
H            3.00523862334492       -1.57131068466133       -2.63707619150235
H            2.18444594996633       -1.22192674828059       -4.15122190696819
H           -0.29804869197343       -0.64586249485991       -4.03277505518742
H           -1.88969594897444        0.87039402032452       -2.94278519744530
H           -1.41799980210084        1.73662905458968       -0.69243883192588
H            0.63291067253307        1.05998111220808        0.47259483150601
H            2.89201275451501        2.32401447646081       -0.81126683707540
H            8.65592587995580        3.45899968650089        2.03249012404062
H            8.39234207361695        5.84112301424516        1.40697923267450
H            4.64048311253071        5.03608172173532       -0.42061385129694
H            0.95253094330398       -3.05989123054347       -0.54115306721459
H            0.60023300606494       -6.22221573746733        0.10830339943756
H            3.03028974012062       -9.06869893367349        2.12220386805747
H            4.77486488980883       -7.36035886814164        2.53859150872782
