100
 energy: -19.779003770599 gnorm: 0.000171332831 xtb: 6.5.0 (97a52f5)
C            3.82976225440878        1.09342421510015        1.83776143377589
C            2.72255059312963        0.29317027439068        1.24962459686826
C            2.72388259784957       -1.08670809446005        1.36851523636902
C            1.69877812884667       -1.84980031685540        0.84448143908742
C            0.64987482798094       -1.23744042578247        0.18971483559738
C            0.63414499400745        0.13085335209911        0.05211761069532
C            1.66712325208917        0.91545067639466        0.56256445529458
N            1.63097101865686        2.34310943665778        0.36510074901973
C            0.42476026330663        3.04662124495044        0.70654619359697
C           -0.38599130491330        2.61604149191393        1.75083080745094
C           -1.53809637875467        3.29639501859709        2.07735892048879
C           -1.92743496400859        4.43197144040136        1.37473043950960
C           -3.19741295721867        5.22576381053816        1.72048876715688
C           -2.80698679004434        6.66437841987733        2.10832763175428
C           -4.13169292774719        5.25495393544488        0.49629325876730
C           -3.96334258435988        4.59549869143694        2.90007835562208
C           -1.11696699749788        4.85410759623552        0.32761604901888
C            0.03474903818325        4.17698809969698       -0.00304615855499
C            2.75605627985503        3.08115795113356       -0.12728886706129
C            3.06803932210051        4.30802473704594        0.46673379028583
C            4.12775722975323        5.06878980821428        0.04793398824466
C            4.93974058552057        4.64453398927711       -1.01178932014470
C            6.04288642317363        5.41481307467121       -1.47050203377536
C            6.80133865100617        4.99837104041937       -2.51410960725655
C            6.52909773817735        3.78335525060196       -3.19927066681205
C            7.30946518072078        3.34268554277345       -4.30091785591858
N            8.35108660692087        4.15242167113862       -4.85789209883577
C            9.52088707248301        3.53370205372617       -5.41826183962995
C           10.10332935688181        4.02788070467754       -6.58018275670614
C           11.24015282276375        3.45202721796495       -7.10099266804816
C           11.84058999816305        2.35990038628836       -6.48397271390901
C           13.11698276088723        1.70111421603157       -7.03104624469737
C           13.60749085761898        2.38710481998822       -8.32133553757518
C           14.23358460659804        1.80044071138482       -5.97485998284649
C           12.83259280937930        0.22090142249838       -7.34723886479194
C           11.25169334763589        1.86663671683011       -5.32535657351553
C           10.11486347229001        2.43904736567538       -4.80049174211023
C            8.12520107708357        5.55489845205315       -5.10897422162664
C            6.94618444506687        5.95921365394724       -5.73133332331382
C            6.70771279940220        7.28730695131814       -5.99798528299510
C            7.64450194904257        8.23787388758190       -5.64640397257492
C            8.81472981920804        7.85486144898351       -5.02029530973231
C            9.07023060419443        6.52466132962961       -4.73407570008064
C           10.32816008118287        6.13933277664503       -4.03929048050108
C            7.01501317494467        2.10596776316259       -4.88273175815006
C            5.97555218611347        1.32800825638371       -4.44268385862780
C            5.16526255086586        1.74656207741006       -3.37838955957269
C            4.06035693947265        0.97756116579202       -2.92129671508850
C            3.29025473934828        1.40228725572790       -1.88923865403928
C            3.55721189300235        2.61968854874739       -1.20595179382124
C            4.64800041437566        3.41261663273329       -1.64777507111511
C            5.45211424338970        2.98005124216330       -2.74400924539674
H            4.30542958294656        0.56462158145176        2.66495888752105
H            3.46031953748495        2.04432009131314        2.22339593230777
H            4.59509913732944        1.30589604422181        1.09018490199979
H            3.53931739884020       -1.56596042089522        1.88335820782308
H            1.71608465611596       -2.92239228040013        0.95041045974984
H           -0.15372052553256       -1.83033422484705       -0.21626988564415
H           -0.17431728153158        0.61648378229944       -0.46653376578496
H           -0.09373026266749        1.74327795469921        2.30831174580894
H           -2.14086294967929        2.93803115720085        2.89277748517932
H           -2.30572230124828        7.17412104361845        1.28651908240454
H           -2.13087690317472        6.66249332176685        2.96299515825936
H           -3.68704535004118        7.24902964387511        2.37536861078187
H           -3.65592049171189        5.74060997817315       -0.35465625113580
H           -5.04903007916153        5.79940789970498        0.71927146353498
H           -4.40429748867851        4.24361163454058        0.19559565634002
H           -3.34862816968406        4.57164879626653        3.79953700960042
H           -4.27620880925063        3.57819652841605        2.66615930326768
H           -4.85991868348764        5.17098786761988        3.12990425498300
H           -1.39463820251202        5.72871447752797       -0.23474154182677
H            0.64659667895156        4.51292016669811       -0.82206931803442
H            2.45799245718753        4.64572079461774        1.28646031608831
H            4.34626296645099        6.00593407898203        0.53056219812124
H            6.26619088733614        6.34391169262209       -0.97472704275532
H            7.63090154796075        5.59718101827258       -2.83989800445565
H            9.65016049468527        4.87295761789783       -7.06834547523371
H           11.66633441667357        3.86190564685076       -7.99932369355473
H           13.84451893159144        3.43566550927199       -8.14281720635932
H           12.85448255489027        2.33005660524980       -9.10697528464371
H           14.51061481622086        1.90538447306881       -8.69573758458016
H           14.43068845133999        2.84145920876555       -5.71980389018722
H           15.16036581929265        1.36254694131853       -6.34493529288308
H           13.96082609512544        1.27724952051132       -5.05927458033176
H           12.02638972040830        0.13072894440128       -8.07486177977809
H           12.53919304646520       -0.32651159062819       -6.45249426395071
H           13.71585165893164       -0.26592134473797       -7.76017621095755
H           11.69648118320636        1.02317889507439       -4.82634731358401
H            9.67838088628532        2.05373904494794       -3.89545601023529
H            6.22441946588689        5.20958553262950       -6.00562353347411
H            5.79198217184763        7.58467140567326       -6.48287941127612
H            7.46174115781578        9.27904213538473       -5.85740101436658
H            9.54302382837397        8.59775562916112       -4.74204612403199
H           10.62761981047809        6.89960810023846       -3.31646798803608
H           11.14316918133971        6.01226099665736       -4.75298169093937
H           10.20522825669926        5.20045657675825       -3.49810967122886
H            7.61021951891787        1.78050501507594       -5.71794225314464
H            5.76326626686727        0.38721443493394       -4.92097815749292
H            3.83897128427433        0.04725205533960       -3.41565672010570
H            2.45417952770095        0.80800702905720       -1.57331779326377
