82
 energy: -17.095256644851 gnorm: 0.000442821522 xtb: 6.5.0 (97a52f5)
C            1.25354929270801       -0.11331792416363        2.04447267818545
C            0.33675085571422       -0.06960805603630        0.87314352789899
C           -0.42974057453146       -1.17751867549384        0.55380463930687
C           -1.29615941654368       -1.15994132356672       -0.52161637802073
C           -1.40677528894938       -0.02499527420667       -1.29874597164110
C           -0.64695535688582        1.08313253776421       -1.00450991789614
C            0.23879806284428        1.07955575102801        0.07086800050637
N            1.04346989682351        2.24595236512456        0.33501587648748
C            0.43722518648966        3.54603674285309        0.18565178130517
C            1.01780810746612        4.47963894297420       -0.67024856344510
C            0.45960506332380        5.72479000438974       -0.84240316377711
C           -0.69282336990657        6.06111956940884       -0.16209940749073
C           -1.27891125218117        5.14934825307081        0.69389853328453
C           -0.72788769619950        3.89393831482372        0.88885087974091
C           -1.36882731094622        2.93442820621089        1.82754636358893
C            2.46772858988004        2.11755500572754        0.39833038647775
C            3.10318388843604        1.14778701187206       -0.38223520148974
C            4.46440698579908        0.98899318035953       -0.37209604987218
C            5.27542137071135        1.80092063697384        0.43222407362330
C            6.68879453948817        1.65469759829087        0.47025459339186
C            7.45373017491713        2.44698477289451        1.26090089818780
C            6.88563624328089        3.45902223614549        2.08169741742749
C            7.67268745072964        4.29325099188885        2.91918685278178
N            9.10110948246322        4.23034694248442        2.93753305137648
C            9.80917872199366        4.49269593152052        4.16717095770208
C           10.77455038549624        5.49619226073137        4.20455723251810
C           11.44600549969124        5.78667684778022        5.36939301895833
C           11.16637667457651        5.07680367367101        6.51949783190177
C           10.22127445202452        4.06970604294130        6.49596150474049
C            9.54185428631924        3.75435372818872        5.33143803366324
C            8.54174898405264        2.65307711315020        5.32186276845488
C            9.89004141182557        4.06678316949923        1.74147848345351
C           10.91997564514101        3.12816279401285        1.73496042621779
C           11.67509689629553        2.91471019094007        0.60551032007045
C           11.41917266164586        3.64128037851579       -0.53927159487706
C           10.41515796134698        4.58968697308124       -0.54393087711103
C            9.65020150996108        4.82834225503086        0.58556027041431
C            8.59145453602450        5.87285044668103        0.55984025032249
C            7.02895383505678        5.21301985296582        3.75206521596887
C            5.66612109170456        5.35430895095343        3.75938807297170
C            4.85959614781349        4.56728472449821        2.92698480304104
C            3.44322753942330        4.68846260549967        2.91642002466518
C            2.68031007210338        3.91027179355671        2.11003211707840
C            3.25614487161099        2.94689757234717        1.23822502574627
C            4.66539837541798        2.78776836540932        1.24490109526420
C            5.47501753421385        3.61005176921384        2.08312795440224
H            0.83283915376739       -0.71426567778216        2.85179507667154
H            1.43677331986477        0.88686877569670        2.43823334028672
H            2.21578234192102       -0.54629528237244        1.76828938730098
H           -0.34556189507522       -2.06279304368801        1.16113928611844
H           -1.88627967872091       -2.03178942810127       -0.75293960364878
H           -2.08408025398551       -0.00830152633044       -2.13715417374179
H           -0.71986434092584        1.96937697096891       -1.61037129602653
H            1.91371934671468        4.20667692752565       -1.20011237383411
H            0.92053150227333        6.43552376069456       -1.50900994735491
H           -1.13417977008179        7.03522080299899       -0.29703437004971
H           -2.17729886225134        5.41392928447265        1.22542657717770
H           -1.95503547920382        3.45381824209737        2.58681730406336
H           -0.61892058765825        2.33450180830780        2.34366439284792
H           -2.03519340831741        2.25543799744378        1.29419532421355
H            2.49541670806029        0.52097436686564       -1.01092212994754
H            4.92603535168408        0.23405710460920       -0.98504290211991
H            7.14610271143827        0.89717624207095       -0.14277306724750
H            8.51802249390421        2.30767762594790        1.27858313639663
H           10.97838039463920        6.04988299362732        3.30463435933697
H           12.18610379140033        6.57024921062414        5.38483082718028
H           11.68777264780837        5.30562525443461        7.43472745533763
H           10.00685290324164        3.51346827232424        7.39276077788946
H            8.79918431887721        1.87878582593880        6.04587281539829
H            8.48997589552468        2.18238938224374        4.33938943466947
H            7.54770102358714        3.02829259240262        5.56814537144511
H           11.10610394852253        2.56092026091298        2.63038330273094
H           12.46305105127811        2.17916452573506        0.61365901126364
H           12.00553016769361        3.47251590244139       -1.42783249460122
H           10.22138973477098        5.16083543150918       -1.43601271766871
H            8.82184221516638        6.65227100385266       -0.16787876474293
H            8.49316116495135        6.35191603333909        1.53460817919798
H            7.62530032382047        5.44085403536912        0.29575123322914
H            7.63475404186083        5.83353151227914        4.38889310104241
H            5.19987046818437        6.07697648716396        4.40676168415500
H            2.98170918037764        5.41246332451873        3.56569910290504
H            1.61147405618951        4.01386774889456        2.12722552462125
