42
 energy: -8.778527660053 gnorm: 0.000532577846 xtb: 6.5.0 (97a52f5)
C            2.76986888397641        1.13247467401588        1.11829350394401
C            1.44119891165999        0.87991828327447        0.50290046419140
C            0.86111702636349       -0.37293464405012        0.56920686422202
C           -0.38315172383465       -0.61119162639990        0.01687014894784
C           -1.07060982761889        0.40954879633980       -0.61013066727129
C           -0.51838083166198        1.66569144259542       -0.68325158449629
C            0.73900895231459        1.92532650969775       -0.12974803626423
N            1.30514699588396        3.24621221283354       -0.20667623539125
C            1.09078085109679        4.18811990792403        0.88018168071278
C            1.58662361384942        5.45525995674191        0.87084622710300
S            1.18517558910979        6.33544581053261        2.32693961209239
C            0.30628561134206        4.98380983904054        2.98705651149563
C           -0.35769789101404        4.90822267133929        4.20322275765451
C           -1.00243251711339        3.74410794077348        4.54605571107554
C           -0.98891222484214        2.65514443038050        3.67900060721190
C           -0.33377674083492        2.72549895464999        2.47572143845874
C            0.33834933592153        3.90225549521968        2.10011375532096
S            2.52770605060498        6.21611763932290       -0.40473940177761
C            2.69554264378648        4.84156452013060       -1.48823319654126
S            3.65875443006572        4.96594478020252       -2.94148865682338
C            3.32079098848257        3.31737717590470       -3.39223361938885
C            3.76683219009885        2.62921493805795       -4.51162929638341
C            3.38704489932463        1.32103325712303       -4.69260000473310
C            2.56317894575553        0.69643340901654       -3.76042782317841
C            2.11972689503497        1.37305030936137       -2.65240791480322
C            2.49273106312354        2.71232697248135       -2.44060101286920
C            2.13931333610924        3.60840504455280       -1.34139571189295
H            3.47824898883985        0.34530231015410        0.85723205356927
H            2.69141196852948        1.17343962618645        2.20530902410789
H            3.18555693636093        2.08103737347296        0.77684706817326
H            1.39289291967127       -1.16898983915299        1.06177243158555
H           -0.81859956835134       -1.59515285570726        0.07685703832286
H           -2.04077773821060        0.22165479845395       -1.04019592193562
H           -1.04453221602883        2.46981328969063       -1.16696087474466
H           -0.36025172841440        5.76104760019881        4.85990221707057
H           -1.52115569977223        3.67378244081528        5.48799410524482
H           -1.49943801579248        1.74762280376148        3.95697057164028
H           -0.34006341708304        1.87744458946040        1.82069552817679
H            4.40256791753321        3.12853258133314       -5.22225518247297
H            3.72726332025292        0.77688070164059       -5.55830299958042
H            2.27134130644578       -0.32984008585847       -3.91226160698057
H            1.48442956903710        0.87413596448654       -1.94832957279565
