42
 energy: -7.900634391027 gnorm: 0.000786004897 xtb: 6.5.0 (97a52f5)
C            0.57400768527798        0.21686138977089        2.40698615781182
C            0.86946663735634       -0.13702465907946        0.99252973737489
C            0.87298716854969       -1.47030331701414        0.61747856233577
C            1.08492499543842       -1.84915984607466       -0.69332010636527
C            1.29204306690181       -0.88743330925318       -1.65998430040678
C            1.30397656029768        0.44026037815086       -1.30971794963959
C            1.11790611100827        0.84779876850028        0.01376696408022
N            1.18693801799025        2.23716490455783        0.30793406792164
C            0.97924787670489        3.18688002588570       -0.75182154710204
S           -0.51039951369759        3.35295618027215       -1.44475662479266
C           -0.82668189358135        4.61430452934126       -2.58443133854416
C           -0.85970538588161        3.80744905002346       -3.77443098091904
C            0.01443351462430        2.91299713973562       -4.26781820756706
C            1.32934944029774        2.86584318241673       -4.14283973682493
C            2.24478411597195        3.70617401760838       -3.61856379856318
C            2.52004261744044        4.31494199678427       -2.44517043029645
C            1.97140408196011        4.06224554665065       -1.21122978096317
S            4.09521086440922        1.66582191208686        1.51806335058157
C            2.79922128075781        2.58803044765991        2.18115222583481
S            2.89021429651937        3.41864830765469        3.72362015121325
C            1.26061583861023        4.04081433327271        3.58227011967951
C            0.54151598741067        4.84613721852720        4.45427093231449
C           -0.74327313795918        5.21335004213607        4.12543630175705
C           -1.32014662021431        4.78529975216572        2.93033946643832
C           -0.61730860931883        3.98960006342133        2.06115963563819
C            0.69231876859254        3.60736053759738        2.38332381556135
C            1.57997983448534        2.77241980295288        1.59762659880785
H            0.11527591666968       -0.61818013217615        2.93782161031563
H           -0.11847746949295        1.05707706683396        2.46025662296412
H            1.48506070392787        0.48732278960002        2.94068185718763
H            0.69658939476775       -2.22342938307782        1.36640309331360
H            1.07972809180353       -2.89278664419832       -0.96186917987200
H            1.44557492333617       -1.17696902401421       -2.68645485238552
H            1.46663223785117        1.19168366672906       -2.06185990825564
H           -1.09220674420025       -0.79244788414329       -6.63482727748637
H            6.51024757592479       -0.45293831066433       -8.00258214507053
H            9.19048700588728        3.27791313577047       -5.52025895161584
H            3.34582376116574        5.00772240577588       -2.45586835586760
H            0.99693379489912        5.17149617396695        5.37340934602950
H           -1.30882144211106        5.83891031333951        4.79620025973253
H           -2.32647870166793        5.08386980304832        2.68721920878773
H           -1.04983264739768        3.65929762885408        1.13432538711068
