55
 energy: -10.794624657217 gnorm: 0.000755926293 xtb: 6.5.0 (97a52f5)
C            3.12976329191846        0.39390402571075       -0.80517447128047
C            1.73483557837150        0.00828266962410       -0.46585689835482
C            1.40168991275139       -1.33525118463335       -0.36141922930851
C            0.12763283005972       -1.72775079620181       -0.01071357130004
C           -0.83453439674702       -0.77760503641826        0.24769434977566
C           -0.51918691757185        0.55827433495436        0.13370664363419
C            0.74445409566205        0.95568712865393       -0.24571543176075
B            0.91174537991133        2.54901531121030       -0.29689778501582
C           -0.38144733266975        3.32055907631848       -0.85750836982315
C           -0.73079183221389        4.41202939474984       -0.09544327279073
C           -1.77216386935625        5.23280573585167       -0.46623782327680
C           -2.47826667144649        4.95350720880812       -1.61471175442817
C           -2.13997078251099        3.85607149417691       -2.37784271866594
C           -1.09015158458359        3.02441710822298       -2.01503864441838
C           -0.78435188578860        1.84049428111655       -2.86390716283791
N            1.21850345711635        2.99403896987222        1.14977040388821
N            0.61784869409339        2.94073619498863        2.32374383361370
C            1.48425191276709        3.58402931802275        3.15389127183593
C            1.23197116088244        3.82697279695933        4.63720479201193
F            2.34323637963160        3.49368668181642        5.31514100812029
F            0.95669753070130        5.13088758259708        4.80718810964540
F            0.19669956980809        3.07400058621202        5.04373195238448
C            2.60232339604695        4.03442232130986        2.48954023189440
C            2.43191161721962        3.63982534866806        1.13803131263935
C            3.00343064922711        3.69968136655628       -0.16432507486854
C            4.22291799085821        4.28371314642373       -0.58288560376199
C            5.08149332806280        4.87122109706717        0.38614080458818
C            6.34357984164369        5.35639501987996        0.18687620349391
C            7.55745370937491        4.82747541442315        0.30747111407165
C            5.63320385231807        4.80337059354798       -2.53601264435543
C            4.51387097772302        4.24293740928582       -1.99306546602695
C            3.58244859927949        3.61687814009191       -2.85068813968183
C            2.43464400866188        3.04989613144098       -2.37726460659006
N            2.16078731697864        3.07068116823232       -1.05955123436431
H            3.82954145813950       -0.41002249194935       -0.57526723270535
H            3.44060975673754        1.26797051979681       -0.23449128075372
H            3.22200785530270        0.62457770996819       -1.86631699162587
H            2.15743699574797       -2.07846079517123       -0.54984513934904
H           -0.11169698691365       -2.77527856428485        0.07157465991239
H           -1.82848068403905       -1.07669053291749        0.53757318469789
H           -1.26086476919730        1.30839162340758        0.34593148972732
H           -0.18521598070257        4.60726107703799        0.80917919048880
H           -2.03398265830988        6.08473976512054        0.13959175753634
H           -3.29596758088650        5.58842536870714       -1.91401930306965
H           -2.69633216394815        3.63265154416120       -3.27213313421116
H           -0.56518226451162        2.14434863960984       -3.88790583470822
H           -1.63429826369687        1.15793332677393       -2.89168852200709
H            0.07147879893833        1.28244321541879       -2.48895625916472
H            3.41357093876490        4.58351237175490        2.93346020674197
H            4.72063946289404        4.90485670494975        1.39570809206448
H            7.12517064512474        5.37839912192080       -0.73085438894585
H            8.86911954946036        7.45543984378537        3.74376152845327
H            6.20567052960981        5.01752909323912       -3.36450522632799
H            3.79316300382801        3.59633111522603       -3.90576810778483
H            1.73393254596294        2.58551130092045       -3.04431082162531
